# generated using pymatgen
data_Zr4Rh2O
_symmetry_space_group_name_H-M   'P 1'
_cell_length_a   8.86852169
_cell_length_b   8.86852169
_cell_length_c   8.86852169
_cell_angle_alpha   60.00000000
_cell_angle_beta   60.00000000
_cell_angle_gamma   60.00000000
_symmetry_Int_Tables_number   1
_chemical_formula_structural   Zr4Rh2O
_chemical_formula_sum   'Zr16 Rh8 O4'
_cell_volume   489.27220790
_cell_formula_units_Z   4
loop_
 _symmetry_equiv_pos_site_id
 _symmetry_equiv_pos_as_xyz
  1  'x, y, z'
loop_
 _atom_site_type_symbol
 _atom_site_label
 _atom_site_symmetry_multiplicity
 _atom_site_fract_x
 _atom_site_fract_y
 _atom_site_fract_z
 _atom_site_occupancy
  Zr  Zr0  1  0.81841657  0.18158343  0.81841657  1
  Zr  Zr1  1  0.43158343  0.06841657  0.43158343  1
  Zr  Zr2  1  0.18158343  0.81841657  0.18158343  1
  Zr  Zr3  1  0.18158343  0.81841657  0.81841657  1
  Zr  Zr4  1  0.81841657  0.18158343  0.18158343  1
  Zr  Zr5  1  0.12500000  0.62500000  0.62500000  1
  Zr  Zr6  1  0.43158343  0.43158343  0.06841657  1
  Zr  Zr7  1  0.18158343  0.18158343  0.81841657  1
  Zr  Zr8  1  0.62500000  0.12500000  0.62500000  1
  Zr  Zr9  1  0.62500000  0.62500000  0.12500000  1
  Zr  Zr10  1  0.81841657  0.81841657  0.18158343  1
  Zr  Zr11  1  0.62500000  0.62500000  0.62500000  1
  Zr  Zr12  1  0.06841657  0.06841657  0.43158343  1
  Zr  Zr13  1  0.06841657  0.43158343  0.43158343  1
  Zr  Zr14  1  0.43158343  0.06841657  0.06841657  1
  Zr  Zr15  1  0.06841657  0.43158343  0.06841657  1
  Rh  Rh16  1  0.77295170  0.40901610  0.40901610  1
  Rh  Rh17  1  0.40901610  0.40901610  0.40901610  1
  Rh  Rh18  1  0.40901610  0.40901610  0.77295170  1
  Rh  Rh19  1  0.84098390  0.47704830  0.84098390  1
  Rh  Rh20  1  0.84098390  0.84098390  0.84098390  1
  Rh  Rh21  1  0.47704830  0.84098390  0.84098390  1
  Rh  Rh22  1  0.84098390  0.84098390  0.47704830  1
  Rh  Rh23  1  0.40901610  0.77295170  0.40901610  1
  O  O24  1  0.12500000  0.12500000  0.12500000  1
  O  O25  1  0.62500000  0.12500000  0.12500000  1
  O  O26  1  0.12500000  0.12500000  0.62500000  1
  O  O27  1  0.12500000  0.62500000  0.12500000  1
