# generated using pymatgen
data_Zr13Rh4O
_symmetry_space_group_name_H-M   'P 1'
_cell_length_a   12.39770000
_cell_length_b   12.39770000
_cell_length_c   12.39770000
_cell_angle_alpha   90.00000000
_cell_angle_beta   90.00000000
_cell_angle_gamma   90.00000000
_symmetry_Int_Tables_number   1
_chemical_formula_structural   Zr13Rh4O
_chemical_formula_sum   'Zr104 Rh32 O8'
_cell_volume   1905.56325278
_cell_formula_units_Z   8
loop_
 _symmetry_equiv_pos_site_id
 _symmetry_equiv_pos_as_xyz
  1  'x, y, z'
loop_
 _atom_site_type_symbol
 _atom_site_label
 _atom_site_symmetry_multiplicity
 _atom_site_fract_x
 _atom_site_fract_y
 _atom_site_fract_z
 _atom_site_occupancy
  Zr  Zr0  1  0.21850000  0.12500000  0.37500000  1
  Zr  Zr1  1  0.12500000  0.53150000  0.37500000  1
  Zr  Zr2  1  0.71850000  0.87500000  0.12500000  1
  Zr  Zr3  1  0.37500000  0.46850000  0.87500000  1
  Zr  Zr4  1  0.78150000  0.12500000  0.62500000  1
  Zr  Zr5  1  0.12500000  0.12500000  0.96850000  1
  Zr  Zr6  1  0.62500000  0.37500000  0.03150000  1
  Zr  Zr7  1  0.87500000  0.21850000  0.62500000  1
  Zr  Zr8  1  0.03150000  0.12500000  0.87500000  1
  Zr  Zr9  1  0.12500000  0.71850000  0.87500000  1
  Zr  Zr10  1  0.87500000  0.96850000  0.87500000  1
  Zr  Zr11  1  0.28150000  0.87500000  0.87500000  1
  Zr  Zr12  1  0.71850000  0.37500000  0.62500000  1
  Zr  Zr13  1  0.28150000  0.12500000  0.12500000  1
  Zr  Zr14  1  0.37500000  0.53150000  0.12500000  1
  Zr  Zr15  1  0.71850000  0.62500000  0.37500000  1
  Zr  Zr16  1  0.53150000  0.62500000  0.87500000  1
  Zr  Zr17  1  0.62500000  0.28150000  0.62500000  1
  Zr  Zr18  1  0.12500000  0.96850000  0.12500000  1
  Zr  Zr19  1  0.62500000  0.62500000  0.28150000  1
  Zr  Zr20  1  0.87500000  0.87500000  0.96850000  1
  Zr  Zr21  1  0.37500000  0.12500000  0.21850000  1
  Zr  Zr22  1  0.12500000  0.87500000  0.71850000  1
  Zr  Zr23  1  0.87500000  0.03150000  0.12500000  1
  Zr  Zr24  1  0.71850000  0.12500000  0.87500000  1
  Zr  Zr25  1  0.62500000  0.53150000  0.87500000  1
  Zr  Zr26  1  0.21850000  0.87500000  0.62500000  1
  Zr  Zr27  1  0.87500000  0.46850000  0.37500000  1
  Zr  Zr28  1  0.62500000  0.12500000  0.46850000  1
  Zr  Zr29  1  0.12500000  0.37500000  0.53150000  1
  Zr  Zr30  1  0.37500000  0.37500000  0.28150000  1
  Zr  Zr31  1  0.37500000  0.62500000  0.03150000  1
  Zr  Zr32  1  0.87500000  0.53150000  0.62500000  1
  Zr  Zr33  1  0.62500000  0.03150000  0.37500000  1
  Zr  Zr34  1  0.21850000  0.37500000  0.12500000  1
  Zr  Zr35  1  0.28150000  0.62500000  0.62500000  1
  Zr  Zr36  1  0.62500000  0.62500000  0.96850000  1
  Zr  Zr37  1  0.12500000  0.87500000  0.03150000  1
  Zr  Zr38  1  0.37500000  0.87500000  0.78150000  1
  Zr  Zr39  1  0.37500000  0.12500000  0.53150000  1
  Zr  Zr40  1  0.37500000  0.28150000  0.37500000  1
  Zr  Zr41  1  0.96850000  0.37500000  0.37500000  1
  Zr  Zr42  1  0.87500000  0.71850000  0.12500000  1
  Zr  Zr43  1  0.37500000  0.03150000  0.62500000  1
  Zr  Zr44  1  0.62500000  0.46850000  0.12500000  1
  Zr  Zr45  1  0.12500000  0.78150000  0.62500000  1
  Zr  Zr46  1  0.96850000  0.87500000  0.87500000  1
  Zr  Zr47  1  0.03150000  0.62500000  0.37500000  1
  Zr  Zr48  1  0.12500000  0.21850000  0.37500000  1
  Zr  Zr49  1  0.53150000  0.87500000  0.62500000  1
  Zr  Zr50  1  0.87500000  0.28150000  0.87500000  1
  Zr  Zr51  1  0.46850000  0.62500000  0.12500000  1
  Zr  Zr52  1  0.12500000  0.62500000  0.78150000  1
  Zr  Zr53  1  0.62500000  0.37500000  0.71850000  1
  Zr  Zr54  1  0.37500000  0.37500000  0.96850000  1
  Zr  Zr55  1  0.12500000  0.62500000  0.46850000  1
  Zr  Zr56  1  0.87500000  0.37500000  0.78150000  1
  Zr  Zr57  1  0.53150000  0.37500000  0.12500000  1
  Zr  Zr58  1  0.37500000  0.78150000  0.87500000  1
  Zr  Zr59  1  0.28150000  0.37500000  0.37500000  1
  Zr  Zr60  1  0.12500000  0.03150000  0.87500000  1
  Zr  Zr61  1  0.87500000  0.62500000  0.53150000  1
  Zr  Zr62  1  0.12500000  0.12500000  0.28150000  1
  Zr  Zr63  1  0.37500000  0.96850000  0.37500000  1
  Zr  Zr64  1  0.78150000  0.87500000  0.37500000  1
  Zr  Zr65  1  0.21850000  0.62500000  0.87500000  1
  Zr  Zr66  1  0.46850000  0.37500000  0.87500000  1
  Zr  Zr67  1  0.37500000  0.21850000  0.12500000  1
  Zr  Zr68  1  0.53150000  0.12500000  0.37500000  1
  Zr  Zr69  1  0.62500000  0.71850000  0.37500000  1
  Zr  Zr70  1  0.62500000  0.21850000  0.87500000  1
  Zr  Zr71  1  0.03150000  0.37500000  0.62500000  1
  Zr  Zr72  1  0.87500000  0.78150000  0.37500000  1
  Zr  Zr73  1  0.46850000  0.87500000  0.37500000  1
  Zr  Zr74  1  0.78150000  0.37500000  0.87500000  1
  Zr  Zr75  1  0.96850000  0.62500000  0.62500000  1
  Zr  Zr76  1  0.12500000  0.37500000  0.21850000  1
  Zr  Zr77  1  0.87500000  0.37500000  0.46850000  1
  Zr  Zr78  1  0.87500000  0.12500000  0.71850000  1
  Zr  Zr79  1  0.87500000  0.12500000  0.03150000  1
  Zr  Zr80  1  0.62500000  0.12500000  0.78150000  1
  Zr  Zr81  1  0.37500000  0.62500000  0.71850000  1
  Zr  Zr82  1  0.78150000  0.62500000  0.12500000  1
  Zr  Zr83  1  0.62500000  0.78150000  0.12500000  1
  Zr  Zr84  1  0.12500000  0.46850000  0.62500000  1
  Zr  Zr85  1  0.46850000  0.12500000  0.62500000  1
  Zr  Zr86  1  0.03150000  0.87500000  0.12500000  1
  Zr  Zr87  1  0.37500000  0.71850000  0.62500000  1
  Zr  Zr88  1  0.12500000  0.28150000  0.12500000  1
  Zr  Zr89  1  0.62500000  0.96850000  0.62500000  1
  Zr  Zr90  1  0.87500000  0.62500000  0.21850000  1
  Zr  Zr91  1  0.62500000  0.87500000  0.21850000  1
  Zr  Zr92  1  0.37500000  0.87500000  0.46850000  1
  Zr  Zr93  1  0.87500000  0.87500000  0.28150000  1
  Zr  Zr94  1  0.62500000  0.87500000  0.53150000  1
  Zr  Zr95  1  0.96850000  0.12500000  0.12500000  1
  Zr  Zr96  1  0.00000000  0.50000000  0.00000000  1
  Zr  Zr97  1  0.75000000  0.75000000  0.75000000  1
  Zr  Zr98  1  0.50000000  0.50000000  0.50000000  1
  Zr  Zr99  1  0.75000000  0.25000000  0.25000000  1
  Zr  Zr100  1  0.25000000  0.75000000  0.25000000  1
  Zr  Zr101  1  0.50000000  0.00000000  0.00000000  1
  Zr  Zr102  1  0.00000000  0.00000000  0.50000000  1
  Zr  Zr103  1  0.25000000  0.25000000  0.75000000  1
  Rh  Rh104  1  0.21850000  0.28150000  0.21850000  1
  Rh  Rh105  1  0.96850000  0.53150000  0.53150000  1
  Rh  Rh106  1  0.71850000  0.71850000  0.28150000  1
  Rh  Rh107  1  0.53150000  0.46850000  0.03150000  1
  Rh  Rh108  1  0.78150000  0.28150000  0.78150000  1
  Rh  Rh109  1  0.96850000  0.96850000  0.96850000  1
  Rh  Rh110  1  0.46850000  0.53150000  0.03150000  1
  Rh  Rh111  1  0.71850000  0.21850000  0.78150000  1
  Rh  Rh112  1  0.03150000  0.96850000  0.03150000  1
  Rh  Rh113  1  0.28150000  0.71850000  0.71850000  1
  Rh  Rh114  1  0.28150000  0.28150000  0.28150000  1
  Rh  Rh115  1  0.53150000  0.53150000  0.96850000  1
  Rh  Rh116  1  0.71850000  0.78150000  0.21850000  1
  Rh  Rh117  1  0.78150000  0.78150000  0.28150000  1
  Rh  Rh118  1  0.03150000  0.03150000  0.96850000  1
  Rh  Rh119  1  0.71850000  0.28150000  0.71850000  1
  Rh  Rh120  1  0.21850000  0.71850000  0.78150000  1
  Rh  Rh121  1  0.03150000  0.46850000  0.53150000  1
  Rh  Rh122  1  0.46850000  0.96850000  0.46850000  1
  Rh  Rh123  1  0.21850000  0.21850000  0.28150000  1
  Rh  Rh124  1  0.03150000  0.53150000  0.46850000  1
  Rh  Rh125  1  0.46850000  0.03150000  0.53150000  1
  Rh  Rh126  1  0.28150000  0.78150000  0.78150000  1
  Rh  Rh127  1  0.46850000  0.46850000  0.96850000  1
  Rh  Rh128  1  0.96850000  0.03150000  0.03150000  1
  Rh  Rh129  1  0.53150000  0.96850000  0.53150000  1
  Rh  Rh130  1  0.53150000  0.03150000  0.46850000  1
  Rh  Rh131  1  0.28150000  0.21850000  0.21850000  1
  Rh  Rh132  1  0.78150000  0.21850000  0.71850000  1
  Rh  Rh133  1  0.96850000  0.46850000  0.46850000  1
  Rh  Rh134  1  0.21850000  0.78150000  0.71850000  1
  Rh  Rh135  1  0.78150000  0.71850000  0.21850000  1
  O  O136  1  0.50000000  0.00000000  0.50000000  1
  O  O137  1  0.25000000  0.25000000  0.25000000  1
  O  O138  1  0.00000000  0.00000000  0.00000000  1
  O  O139  1  0.25000000  0.75000000  0.75000000  1
  O  O140  1  0.75000000  0.25000000  0.75000000  1
  O  O141  1  0.00000000  0.50000000  0.50000000  1
  O  O142  1  0.50000000  0.50000000  0.00000000  1
  O  O143  1  0.75000000  0.75000000  0.25000000  1
