# generated using pymatgen
data_Zr13Pd4O
_symmetry_space_group_name_H-M   'P 1'
_cell_length_a   12.46170000
_cell_length_b   12.46170000
_cell_length_c   12.46170000
_cell_angle_alpha   90.00000000
_cell_angle_beta   90.00000000
_cell_angle_gamma   90.00000000
_symmetry_Int_Tables_number   1
_chemical_formula_structural   Zr13Pd4O
_chemical_formula_sum   'Zr104 Pd32 O8'
_cell_volume   1935.22682719
_cell_formula_units_Z   8
loop_
 _symmetry_equiv_pos_site_id
 _symmetry_equiv_pos_as_xyz
  1  'x, y, z'
loop_
 _atom_site_type_symbol
 _atom_site_label
 _atom_site_symmetry_multiplicity
 _atom_site_fract_x
 _atom_site_fract_y
 _atom_site_fract_z
 _atom_site_occupancy
  Zr  Zr0  1  0.21431000  0.12500000  0.37500000  1
  Zr  Zr1  1  0.12500000  0.53569000  0.37500000  1
  Zr  Zr2  1  0.71431000  0.87500000  0.12500000  1
  Zr  Zr3  1  0.37500000  0.46431000  0.87500000  1
  Zr  Zr4  1  0.78569000  0.12500000  0.62500000  1
  Zr  Zr5  1  0.12500000  0.12500000  0.96431000  1
  Zr  Zr6  1  0.62500000  0.37500000  0.03569000  1
  Zr  Zr7  1  0.87500000  0.21431000  0.62500000  1
  Zr  Zr8  1  0.03569000  0.12500000  0.87500000  1
  Zr  Zr9  1  0.12500000  0.71431000  0.87500000  1
  Zr  Zr10  1  0.87500000  0.96431000  0.87500000  1
  Zr  Zr11  1  0.28569000  0.87500000  0.87500000  1
  Zr  Zr12  1  0.71431000  0.37500000  0.62500000  1
  Zr  Zr13  1  0.28569000  0.12500000  0.12500000  1
  Zr  Zr14  1  0.37500000  0.53569000  0.12500000  1
  Zr  Zr15  1  0.71431000  0.62500000  0.37500000  1
  Zr  Zr16  1  0.53569000  0.62500000  0.87500000  1
  Zr  Zr17  1  0.62500000  0.28569000  0.62500000  1
  Zr  Zr18  1  0.12500000  0.96431000  0.12500000  1
  Zr  Zr19  1  0.62500000  0.62500000  0.28569000  1
  Zr  Zr20  1  0.87500000  0.87500000  0.96431000  1
  Zr  Zr21  1  0.37500000  0.12500000  0.21431000  1
  Zr  Zr22  1  0.12500000  0.87500000  0.71431000  1
  Zr  Zr23  1  0.87500000  0.03569000  0.12500000  1
  Zr  Zr24  1  0.71431000  0.12500000  0.87500000  1
  Zr  Zr25  1  0.62500000  0.53569000  0.87500000  1
  Zr  Zr26  1  0.21431000  0.87500000  0.62500000  1
  Zr  Zr27  1  0.87500000  0.46431000  0.37500000  1
  Zr  Zr28  1  0.62500000  0.12500000  0.46431000  1
  Zr  Zr29  1  0.12500000  0.37500000  0.53569000  1
  Zr  Zr30  1  0.37500000  0.37500000  0.28569000  1
  Zr  Zr31  1  0.37500000  0.62500000  0.03569000  1
  Zr  Zr32  1  0.87500000  0.53569000  0.62500000  1
  Zr  Zr33  1  0.62500000  0.03569000  0.37500000  1
  Zr  Zr34  1  0.21431000  0.37500000  0.12500000  1
  Zr  Zr35  1  0.28569000  0.62500000  0.62500000  1
  Zr  Zr36  1  0.62500000  0.62500000  0.96431000  1
  Zr  Zr37  1  0.12500000  0.87500000  0.03569000  1
  Zr  Zr38  1  0.37500000  0.87500000  0.78569000  1
  Zr  Zr39  1  0.37500000  0.12500000  0.53569000  1
  Zr  Zr40  1  0.37500000  0.28569000  0.37500000  1
  Zr  Zr41  1  0.96431000  0.37500000  0.37500000  1
  Zr  Zr42  1  0.87500000  0.71431000  0.12500000  1
  Zr  Zr43  1  0.37500000  0.03569000  0.62500000  1
  Zr  Zr44  1  0.62500000  0.46431000  0.12500000  1
  Zr  Zr45  1  0.12500000  0.78569000  0.62500000  1
  Zr  Zr46  1  0.96431000  0.87500000  0.87500000  1
  Zr  Zr47  1  0.03569000  0.62500000  0.37500000  1
  Zr  Zr48  1  0.12500000  0.21431000  0.37500000  1
  Zr  Zr49  1  0.53569000  0.87500000  0.62500000  1
  Zr  Zr50  1  0.87500000  0.28569000  0.87500000  1
  Zr  Zr51  1  0.46431000  0.62500000  0.12500000  1
  Zr  Zr52  1  0.12500000  0.62500000  0.78569000  1
  Zr  Zr53  1  0.62500000  0.37500000  0.71431000  1
  Zr  Zr54  1  0.37500000  0.37500000  0.96431000  1
  Zr  Zr55  1  0.12500000  0.62500000  0.46431000  1
  Zr  Zr56  1  0.87500000  0.37500000  0.78569000  1
  Zr  Zr57  1  0.53569000  0.37500000  0.12500000  1
  Zr  Zr58  1  0.37500000  0.78569000  0.87500000  1
  Zr  Zr59  1  0.28569000  0.37500000  0.37500000  1
  Zr  Zr60  1  0.12500000  0.03569000  0.87500000  1
  Zr  Zr61  1  0.87500000  0.62500000  0.53569000  1
  Zr  Zr62  1  0.12500000  0.12500000  0.28569000  1
  Zr  Zr63  1  0.37500000  0.96431000  0.37500000  1
  Zr  Zr64  1  0.78569000  0.87500000  0.37500000  1
  Zr  Zr65  1  0.21431000  0.62500000  0.87500000  1
  Zr  Zr66  1  0.46431000  0.37500000  0.87500000  1
  Zr  Zr67  1  0.37500000  0.21431000  0.12500000  1
  Zr  Zr68  1  0.53569000  0.12500000  0.37500000  1
  Zr  Zr69  1  0.62500000  0.71431000  0.37500000  1
  Zr  Zr70  1  0.62500000  0.21431000  0.87500000  1
  Zr  Zr71  1  0.03569000  0.37500000  0.62500000  1
  Zr  Zr72  1  0.87500000  0.78569000  0.37500000  1
  Zr  Zr73  1  0.46431000  0.87500000  0.37500000  1
  Zr  Zr74  1  0.78569000  0.37500000  0.87500000  1
  Zr  Zr75  1  0.96431000  0.62500000  0.62500000  1
  Zr  Zr76  1  0.12500000  0.37500000  0.21431000  1
  Zr  Zr77  1  0.87500000  0.37500000  0.46431000  1
  Zr  Zr78  1  0.87500000  0.12500000  0.71431000  1
  Zr  Zr79  1  0.87500000  0.12500000  0.03569000  1
  Zr  Zr80  1  0.62500000  0.12500000  0.78569000  1
  Zr  Zr81  1  0.37500000  0.62500000  0.71431000  1
  Zr  Zr82  1  0.78569000  0.62500000  0.12500000  1
  Zr  Zr83  1  0.62500000  0.78569000  0.12500000  1
  Zr  Zr84  1  0.12500000  0.46431000  0.62500000  1
  Zr  Zr85  1  0.46431000  0.12500000  0.62500000  1
  Zr  Zr86  1  0.03569000  0.87500000  0.12500000  1
  Zr  Zr87  1  0.37500000  0.71431000  0.62500000  1
  Zr  Zr88  1  0.12500000  0.28569000  0.12500000  1
  Zr  Zr89  1  0.62500000  0.96431000  0.62500000  1
  Zr  Zr90  1  0.87500000  0.62500000  0.21431000  1
  Zr  Zr91  1  0.62500000  0.87500000  0.21431000  1
  Zr  Zr92  1  0.37500000  0.87500000  0.46431000  1
  Zr  Zr93  1  0.87500000  0.87500000  0.28569000  1
  Zr  Zr94  1  0.62500000  0.87500000  0.53569000  1
  Zr  Zr95  1  0.96431000  0.12500000  0.12500000  1
  Zr  Zr96  1  0.00000000  0.50000000  0.00000000  1
  Zr  Zr97  1  0.75000000  0.75000000  0.75000000  1
  Zr  Zr98  1  0.50000000  0.50000000  0.50000000  1
  Zr  Zr99  1  0.75000000  0.25000000  0.25000000  1
  Zr  Zr100  1  0.25000000  0.75000000  0.25000000  1
  Zr  Zr101  1  0.50000000  0.00000000  0.00000000  1
  Zr  Zr102  1  0.00000000  0.00000000  0.50000000  1
  Zr  Zr103  1  0.25000000  0.25000000  0.75000000  1
  Pd  Pd104  1  0.21431000  0.28569000  0.21431000  1
  Pd  Pd105  1  0.96431000  0.53569000  0.53569000  1
  Pd  Pd106  1  0.71431000  0.71431000  0.28569000  1
  Pd  Pd107  1  0.53569000  0.46431000  0.03569000  1
  Pd  Pd108  1  0.78569000  0.28569000  0.78569000  1
  Pd  Pd109  1  0.96431000  0.96431000  0.96431000  1
  Pd  Pd110  1  0.46431000  0.53569000  0.03569000  1
  Pd  Pd111  1  0.71431000  0.21431000  0.78569000  1
  Pd  Pd112  1  0.03569000  0.96431000  0.03569000  1
  Pd  Pd113  1  0.28569000  0.71431000  0.71431000  1
  Pd  Pd114  1  0.28569000  0.28569000  0.28569000  1
  Pd  Pd115  1  0.53569000  0.53569000  0.96431000  1
  Pd  Pd116  1  0.71431000  0.78569000  0.21431000  1
  Pd  Pd117  1  0.78569000  0.78569000  0.28569000  1
  Pd  Pd118  1  0.03569000  0.03569000  0.96431000  1
  Pd  Pd119  1  0.71431000  0.28569000  0.71431000  1
  Pd  Pd120  1  0.21431000  0.71431000  0.78569000  1
  Pd  Pd121  1  0.03569000  0.46431000  0.53569000  1
  Pd  Pd122  1  0.46431000  0.96431000  0.46431000  1
  Pd  Pd123  1  0.21431000  0.21431000  0.28569000  1
  Pd  Pd124  1  0.03569000  0.53569000  0.46431000  1
  Pd  Pd125  1  0.46431000  0.03569000  0.53569000  1
  Pd  Pd126  1  0.28569000  0.78569000  0.78569000  1
  Pd  Pd127  1  0.46431000  0.46431000  0.96431000  1
  Pd  Pd128  1  0.96431000  0.03569000  0.03569000  1
  Pd  Pd129  1  0.53569000  0.96431000  0.53569000  1
  Pd  Pd130  1  0.53569000  0.03569000  0.46431000  1
  Pd  Pd131  1  0.28569000  0.21431000  0.21431000  1
  Pd  Pd132  1  0.78569000  0.21431000  0.71431000  1
  Pd  Pd133  1  0.96431000  0.46431000  0.46431000  1
  Pd  Pd134  1  0.21431000  0.78569000  0.71431000  1
  Pd  Pd135  1  0.78569000  0.71431000  0.21431000  1
  O  O136  1  0.50000000  0.00000000  0.50000000  1
  O  O137  1  0.25000000  0.25000000  0.25000000  1
  O  O138  1  0.00000000  0.00000000  0.00000000  1
  O  O139  1  0.25000000  0.75000000  0.75000000  1
  O  O140  1  0.75000000  0.25000000  0.75000000  1
  O  O141  1  0.00000000  0.50000000  0.50000000  1
  O  O142  1  0.50000000  0.50000000  0.00000000  1
  O  O143  1  0.75000000  0.75000000  0.25000000  1
