# generated using pymatgen
data_La8Fe4Si8O3.6
_symmetry_space_group_name_H-M   'P 1'
_cell_length_a   4.10850000
_cell_length_b   4.10850000
_cell_length_c   8.13200000
_cell_angle_alpha   90.00000000
_cell_angle_beta   90.00000000
_cell_angle_gamma   90.00000000
_symmetry_Int_Tables_number   1
_chemical_formula_structural   La8Fe4Si8O3.6
_chemical_formula_sum   'La8 Fe4 Si8 O3.6'
_cell_volume   137.26630794
_cell_formula_units_Z   1
loop_
 _symmetry_equiv_pos_site_id
 _symmetry_equiv_pos_as_xyz
  1  'x, y, z'
loop_
 _atom_site_type_symbol
 _atom_site_label
 _atom_site_symmetry_multiplicity
 _atom_site_fract_x
 _atom_site_fract_y
 _atom_site_fract_z
 _atom_site_occupancy
  La  La0  1  0.75000000  0.75000000  0.34740000  1
  La  La1  1  0.75000000  0.25000000  0.34740000  1
  La  La2  1  0.75000000  0.25000000  0.65260000  1
  La  La3  1  0.25000000  0.75000000  0.65260000  1
  La  La4  1  0.75000000  0.75000000  0.65260000  1
  La  La5  1  0.25000000  0.25000000  0.65260000  1
  La  La6  1  0.25000000  0.25000000  0.34740000  1
  La  La7  1  0.25000000  0.75000000  0.34740000  1
  Fe  Fe8  1  0.25000000  0.75000000  0.00000000  1
  Fe  Fe9  1  0.75000000  0.75000000  0.00000000  1
  Fe  Fe10  1  0.25000000  0.25000000  0.00000000  1
  Fe  Fe11  1  0.75000000  0.25000000  0.00000000  1
  Si  Si12  1  0.75000000  0.75000000  0.88400000  1
  Si  Si13  1  0.75000000  0.25000000  0.88400000  1
  Si  Si14  1  0.75000000  0.25000000  0.11600000  1
  Si  Si15  1  0.25000000  0.75000000  0.11600000  1
  Si  Si16  1  0.75000000  0.75000000  0.11600000  1
  Si  Si17  1  0.25000000  0.25000000  0.11600000  1
  Si  Si18  1  0.25000000  0.25000000  0.88400000  1
  Si  Si19  1  0.25000000  0.75000000  0.88400000  1
  O  O20  1  0.25000000  0.75000000  0.50000000  0.9
  O  O21  1  0.75000000  0.75000000  0.50000000  0.9
  O  O22  1  0.25000000  0.25000000  0.50000000  0.9
  O  O23  1  0.75000000  0.25000000  0.50000000  0.9
