# generated using pymatgen
data_Cs1.94W6O18
_symmetry_space_group_name_H-M   'P 1'
_cell_length_a   7.41160000
_cell_length_b   7.41160000
_cell_length_c   7.59810000
_cell_angle_alpha   90.00000000
_cell_angle_beta   90.00000000
_cell_angle_gamma   120.00000000
_symmetry_Int_Tables_number   1
_chemical_formula_structural   Cs1.94W6O18
_chemical_formula_sum   'Cs1.94 W6 O18'
_cell_volume   361.45944887
_cell_formula_units_Z   1
loop_
 _symmetry_equiv_pos_site_id
 _symmetry_equiv_pos_as_xyz
  1  'x, y, z'
loop_
 _atom_type_symbol
 _atom_type_oxidation_number
  Cs+  1.0
  W5.677+  5.677
  O2-  -2.0
loop_
 _atom_site_type_symbol
 _atom_site_label
 _atom_site_symmetry_multiplicity
 _atom_site_fract_x
 _atom_site_fract_y
 _atom_site_fract_z
 _atom_site_occupancy
  Cs+  Cs0  1  0.00000000  0.00000000  0.50000000  0.97
  Cs+  Cs1  1  0.00000000  0.00000000  0.00000000  0.97
  W5.677+  W2  1  0.51670000  0.51670000  0.25000000  1.0
  W5.677+  W3  1  0.48330000  0.00000000  0.25000000  1.0
  W5.677+  W4  1  0.00000000  0.48330000  0.25000000  1.0
  W5.677+  W5  1  0.48330000  0.48330000  0.75000000  1.0
  W5.677+  W6  1  0.51670000  0.00000000  0.75000000  1.0
  W5.677+  W7  1  0.00000000  0.51670000  0.75000000  1.0
  O2-  O8  1  0.57800000  0.79100000  0.25000000  1.0
  O2-  O9  1  0.20900000  0.78700000  0.25000000  1.0
  O2-  O10  1  0.21300000  0.42200000  0.25000000  1.0
  O2-  O11  1  0.79100000  0.57800000  0.25000000  1.0
  O2-  O12  1  0.78700000  0.20900000  0.25000000  1.0
  O2-  O13  1  0.42200000  0.21300000  0.25000000  1.0
  O2-  O14  1  0.42200000  0.20900000  0.75000000  1.0
  O2-  O15  1  0.79100000  0.21300000  0.75000000  1.0
  O2-  O16  1  0.78700000  0.57800000  0.75000000  1.0
  O2-  O17  1  0.20900000  0.42200000  0.75000000  1.0
  O2-  O18  1  0.21300000  0.79100000  0.75000000  1.0
  O2-  O19  1  0.57800000  0.78700000  0.75000000  1.0
  O2-  O20  1  0.51300000  0.51300000  0.50000000  0.5
  O2-  O21  1  0.48700000  0.00000000  0.50000000  0.5
  O2-  O22  1  0.00000000  0.48700000  0.50000000  0.5
  O2-  O23  1  0.48700000  0.48700000  0.50000000  0.5
  O2-  O24  1  0.51300000  0.00000000  0.50000000  0.5
  O2-  O25  1  0.00000000  0.51300000  0.50000000  0.5
  O2-  O26  1  0.48700000  0.48700000  0.00000000  0.5
  O2-  O27  1  0.51300000  0.00000000  0.00000000  0.5
  O2-  O28  1  0.00000000  0.51300000  0.00000000  0.5
  O2-  O29  1  0.51300000  0.51300000  0.00000000  0.5
  O2-  O30  1  0.48700000  0.00000000  0.00000000  0.5
  O2-  O31  1  0.00000000  0.48700000  0.00000000  0.5
