# generated using pymatgen
data_Cr2Ru
_symmetry_space_group_name_H-M   'P 1'
_cell_length_a   9.06350000
_cell_length_b   9.06350000
_cell_length_c   4.74300000
_cell_angle_alpha   90.00000000
_cell_angle_beta   90.00000000
_cell_angle_gamma   90.00000000
_symmetry_Int_Tables_number   1
_chemical_formula_structural   Cr2Ru
_chemical_formula_sum   'Cr20 Ru10'
_cell_volume   389.62337396
_cell_formula_units_Z   10
loop_
 _symmetry_equiv_pos_site_id
 _symmetry_equiv_pos_as_xyz
  1  'x, y, z'
loop_
 _atom_type_symbol
 _atom_type_oxidation_number
  Cr0+  0.0
  Ru0+  0.0
loop_
 _atom_site_type_symbol
 _atom_site_label
 _atom_site_symmetry_multiplicity
 _atom_site_fract_x
 _atom_site_fract_y
 _atom_site_fract_z
 _atom_site_occupancy
  Cr0+  Cr0  1  0.31590000  0.68410000  0.24800000  0.825
  Ru0+  Ru1  1  0.31590000  0.68410000  0.24800000  0.175
  Cr0+  Cr2  1  0.68410000  0.31590000  0.24800000  0.825
  Ru0+  Ru3  1  0.68410000  0.31590000  0.24800000  0.175
  Cr0+  Cr4  1  0.18410000  0.18410000  0.74800000  0.825
  Ru0+  Ru5  1  0.18410000  0.18410000  0.74800000  0.175
  Cr0+  Cr6  1  0.81590000  0.81590000  0.74800000  0.825
  Ru0+  Ru7  1  0.81590000  0.81590000  0.74800000  0.175
  Cr0+  Cr8  1  0.68410000  0.31590000  0.75200000  0.825
  Ru0+  Ru9  1  0.68410000  0.31590000  0.75200000  0.175
  Cr0+  Cr10  1  0.31590000  0.68410000  0.75200000  0.825
  Ru0+  Ru11  1  0.31590000  0.68410000  0.75200000  0.175
  Cr0+  Cr12  1  0.81590000  0.81590000  0.25200000  0.825
  Ru0+  Ru13  1  0.81590000  0.81590000  0.25200000  0.175
  Cr0+  Cr14  1  0.18410000  0.18410000  0.25200000  0.825
  Ru0+  Ru15  1  0.18410000  0.18410000  0.25200000  0.175
  Cr0+  Cr16  1  0.50000000  0.50000000  0.50000000  0.8
  Ru0+  Ru17  1  0.50000000  0.50000000  0.50000000  0.2
  Cr0+  Cr18  1  0.00000000  0.00000000  0.00000000  0.8
  Ru0+  Ru19  1  0.00000000  0.00000000  0.00000000  0.2
  Cr0+  Cr20  1  0.10000000  0.90000000  0.50000000  0.65
  Ru0+  Ru21  1  0.10000000  0.90000000  0.50000000  0.35
  Cr0+  Cr22  1  0.90000000  0.10000000  0.50000000  0.65
  Ru0+  Ru23  1  0.90000000  0.10000000  0.50000000  0.35
  Cr0+  Cr24  1  0.40000000  0.40000000  0.00000000  0.65
  Ru0+  Ru25  1  0.40000000  0.40000000  0.00000000  0.35
  Cr0+  Cr26  1  0.60000000  0.60000000  0.00000000  0.65
  Ru0+  Ru27  1  0.60000000  0.60000000  0.00000000  0.35
  Cr0+  Cr28  1  0.36830000  0.03440000  0.50000000  0.6
  Ru0+  Ru29  1  0.36830000  0.03440000  0.50000000  0.4
  Cr0+  Cr30  1  0.63170000  0.96560000  0.50000000  0.6
  Ru0+  Ru31  1  0.63170000  0.96560000  0.50000000  0.4
  Cr0+  Cr32  1  0.13170000  0.53440000  0.00000000  0.6
  Ru0+  Ru33  1  0.13170000  0.53440000  0.00000000  0.4
  Cr0+  Cr34  1  0.86830000  0.46560000  0.00000000  0.6
  Ru0+  Ru35  1  0.86830000  0.46560000  0.00000000  0.4
  Cr0+  Cr36  1  0.03440000  0.36830000  0.50000000  0.6
  Ru0+  Ru37  1  0.03440000  0.36830000  0.50000000  0.4
  Cr0+  Cr38  1  0.96560000  0.63170000  0.50000000  0.6
  Ru0+  Ru39  1  0.96560000  0.63170000  0.50000000  0.4
  Cr0+  Cr40  1  0.53440000  0.13170000  0.00000000  0.6
  Ru0+  Ru41  1  0.53440000  0.13170000  0.00000000  0.4
  Cr0+  Cr42  1  0.46560000  0.86830000  0.00000000  0.6
  Ru0+  Ru43  1  0.46560000  0.86830000  0.00000000  0.4
  Cr0+  Cr44  1  0.24340000  0.56240000  0.50000000  0.55
  Ru0+  Ru45  1  0.24340000  0.56240000  0.50000000  0.45
  Cr0+  Cr46  1  0.75660000  0.43760000  0.50000000  0.55
  Ru0+  Ru47  1  0.75660000  0.43760000  0.50000000  0.45
  Cr0+  Cr48  1  0.25660000  0.06240000  0.00000000  0.55
  Ru0+  Ru49  1  0.25660000  0.06240000  0.00000000  0.45
  Cr0+  Cr50  1  0.74340000  0.93760000  0.00000000  0.55
  Ru0+  Ru51  1  0.74340000  0.93760000  0.00000000  0.45
  Cr0+  Cr52  1  0.56240000  0.24340000  0.50000000  0.55
  Ru0+  Ru53  1  0.56240000  0.24340000  0.50000000  0.45
  Cr0+  Cr54  1  0.43760000  0.75660000  0.50000000  0.55
  Ru0+  Ru55  1  0.43760000  0.75660000  0.50000000  0.45
  Cr0+  Cr56  1  0.06240000  0.25660000  0.00000000  0.55
  Ru0+  Ru57  1  0.06240000  0.25660000  0.00000000  0.45
  Cr0+  Cr58  1  0.93760000  0.74340000  0.00000000  0.55
  Ru0+  Ru59  1  0.93760000  0.74340000  0.00000000  0.45
