# generated using pymatgen
data_Al0.7Ag1.3
_symmetry_space_group_name_H-M   'P 1'
_cell_length_a   2.87730000
_cell_length_b   2.87730000
_cell_length_c   4.62400000
_cell_angle_alpha   90.00000000
_cell_angle_beta   90.00000000
_cell_angle_gamma   120.00000000
_symmetry_Int_Tables_number   1
_chemical_formula_structural   Al0.7Ag1.3
_chemical_formula_sum   'Al0.7 Ag1.3'
_cell_volume   33.15268815
_cell_formula_units_Z   1
loop_
 _symmetry_equiv_pos_site_id
 _symmetry_equiv_pos_as_xyz
  1  'x, y, z'
loop_
 _atom_type_symbol
 _atom_type_oxidation_number
  Al0+  0.0
  Ag0+  0.0
loop_
 _atom_site_type_symbol
 _atom_site_label
 _atom_site_symmetry_multiplicity
 _atom_site_fract_x
 _atom_site_fract_y
 _atom_site_fract_z
 _atom_site_occupancy
  Al0+  Al0  1  0.33333333  0.66666667  0.25000000  0.35
  Ag0+  Ag1  1  0.33333333  0.66666667  0.25000000  0.65
  Al0+  Al2  1  0.66666667  0.33333333  0.75000000  0.35
  Ag0+  Ag3  1  0.66666667  0.33333333  0.75000000  0.65
