# generated using pymatgen
data_Ta0.4Ir3.6
_symmetry_space_group_name_H-M   'P 1'
_cell_length_a   3.85700000
_cell_length_b   3.85700000
_cell_length_c   3.85700000
_cell_angle_alpha   90.00000000
_cell_angle_beta   90.00000000
_cell_angle_gamma   90.00000000
_symmetry_Int_Tables_number   1
_chemical_formula_structural   Ta0.4Ir3.6
_chemical_formula_sum   'Ta0.4 Ir3.6'
_cell_volume   57.37846379
_cell_formula_units_Z   1
loop_
 _symmetry_equiv_pos_site_id
 _symmetry_equiv_pos_as_xyz
  1  'x, y, z'
loop_
 _atom_type_symbol
 _atom_type_oxidation_number
  Ta0+  0.0
  Ir0+  0.0
loop_
 _atom_site_type_symbol
 _atom_site_label
 _atom_site_symmetry_multiplicity
 _atom_site_fract_x
 _atom_site_fract_y
 _atom_site_fract_z
 _atom_site_occupancy
  Ta0+  Ta0  1  0.00000000  0.00000000  0.00000000  0.1
  Ir0+  Ir1  1  0.00000000  0.00000000  0.00000000  0.9
  Ta0+  Ta2  1  0.00000000  0.50000000  0.50000000  0.1
  Ir0+  Ir3  1  0.00000000  0.50000000  0.50000000  0.9
  Ta0+  Ta4  1  0.50000000  0.00000000  0.50000000  0.1
  Ir0+  Ir5  1  0.50000000  0.00000000  0.50000000  0.9
  Ta0+  Ta6  1  0.50000000  0.50000000  0.00000000  0.1
  Ir0+  Ir7  1  0.50000000  0.50000000  0.00000000  0.9
