# generated using pymatgen
data_Th8Ir9.6Ru6.4
_symmetry_space_group_name_H-M   'P 1'
_cell_length_a   7.65700000
_cell_length_b   7.65700000
_cell_length_c   7.65700000
_cell_angle_alpha   90.00000000
_cell_angle_beta   90.00000000
_cell_angle_gamma   90.00000000
_symmetry_Int_Tables_number   1
_chemical_formula_structural   Th8Ir9.6Ru6.4
_chemical_formula_sum   'Th8 Ir9.6 Ru6.4'
_cell_volume   448.92722239
_cell_formula_units_Z   1
loop_
 _symmetry_equiv_pos_site_id
 _symmetry_equiv_pos_as_xyz
  1  'x, y, z'
loop_
 _atom_type_symbol
 _atom_type_oxidation_number
  Th0+  0.0
  Ir0+  0.0
  Ru0+  0.0
loop_
 _atom_site_type_symbol
 _atom_site_label
 _atom_site_symmetry_multiplicity
 _atom_site_fract_x
 _atom_site_fract_y
 _atom_site_fract_z
 _atom_site_occupancy
  Th0+  Th0  1  0.25000000  0.25000000  0.25000000  1.0
  Th0+  Th1  1  0.00000000  0.00000000  0.00000000  1.0
  Th0+  Th2  1  0.25000000  0.75000000  0.75000000  1.0
  Th0+  Th3  1  0.00000000  0.50000000  0.50000000  1.0
  Th0+  Th4  1  0.75000000  0.25000000  0.75000000  1.0
  Th0+  Th5  1  0.50000000  0.00000000  0.50000000  1.0
  Th0+  Th6  1  0.75000000  0.75000000  0.25000000  1.0
  Th0+  Th7  1  0.50000000  0.50000000  0.00000000  1.0
  Ir0+  Ir8  1  0.87500000  0.87500000  0.62500000  0.6
  Ru0+  Ru9  1  0.87500000  0.87500000  0.62500000  0.4
  Ir0+  Ir10  1  0.87500000  0.62500000  0.87500000  0.6
  Ru0+  Ru11  1  0.87500000  0.62500000  0.87500000  0.4
  Ir0+  Ir12  1  0.62500000  0.87500000  0.87500000  0.6
  Ru0+  Ru13  1  0.62500000  0.87500000  0.87500000  0.4
  Ir0+  Ir14  1  0.62500000  0.62500000  0.62500000  0.6
  Ru0+  Ru15  1  0.62500000  0.62500000  0.62500000  0.4
  Ir0+  Ir16  1  0.37500000  0.37500000  0.62500000  0.6
  Ru0+  Ru17  1  0.37500000  0.37500000  0.62500000  0.4
  Ir0+  Ir18  1  0.37500000  0.62500000  0.37500000  0.6
  Ru0+  Ru19  1  0.37500000  0.62500000  0.37500000  0.4
  Ir0+  Ir20  1  0.62500000  0.37500000  0.37500000  0.6
  Ru0+  Ru21  1  0.62500000  0.37500000  0.37500000  0.4
  Ir0+  Ir22  1  0.87500000  0.37500000  0.12500000  0.6
  Ru0+  Ru23  1  0.87500000  0.37500000  0.12500000  0.4
  Ir0+  Ir24  1  0.87500000  0.12500000  0.37500000  0.6
  Ru0+  Ru25  1  0.87500000  0.12500000  0.37500000  0.4
  Ir0+  Ir26  1  0.62500000  0.12500000  0.12500000  0.6
  Ru0+  Ru27  1  0.62500000  0.12500000  0.12500000  0.4
  Ir0+  Ir28  1  0.37500000  0.87500000  0.12500000  0.6
  Ru0+  Ru29  1  0.37500000  0.87500000  0.12500000  0.4
  Ir0+  Ir30  1  0.37500000  0.12500000  0.87500000  0.6
  Ru0+  Ru31  1  0.37500000  0.12500000  0.87500000  0.4
  Ir0+  Ir32  1  0.12500000  0.87500000  0.37500000  0.6
  Ru0+  Ru33  1  0.12500000  0.87500000  0.37500000  0.4
  Ir0+  Ir34  1  0.12500000  0.62500000  0.12500000  0.6
  Ru0+  Ru35  1  0.12500000  0.62500000  0.12500000  0.4
  Ir0+  Ir36  1  0.12500000  0.37500000  0.87500000  0.6
  Ru0+  Ru37  1  0.12500000  0.37500000  0.87500000  0.4
  Ir0+  Ir38  1  0.12500000  0.12500000  0.62500000  0.6
  Ru0+  Ru39  1  0.12500000  0.12500000  0.62500000  0.4
