# generated using pymatgen
data_Nb17.6Ir12
_symmetry_space_group_name_H-M   'P 1'
_cell_length_a   9.86000000
_cell_length_b   9.86000000
_cell_length_c   5.05000000
_cell_angle_alpha   90.00000000
_cell_angle_beta   90.00000000
_cell_angle_gamma   90.00000000
_symmetry_Int_Tables_number   1
_chemical_formula_structural   Nb17.6Ir12
_chemical_formula_sum   'Nb17.6 Ir12'
_cell_volume   490.95898000
_cell_formula_units_Z   1
loop_
 _symmetry_equiv_pos_site_id
 _symmetry_equiv_pos_as_xyz
  1  'x, y, z'
loop_
 _atom_type_symbol
 _atom_type_oxidation_number
  Nb0+  0.0
  Ir0+  0.0
loop_
 _atom_site_type_symbol
 _atom_site_label
 _atom_site_symmetry_multiplicity
 _atom_site_fract_x
 _atom_site_fract_y
 _atom_site_fract_z
 _atom_site_occupancy
  Nb0+  Nb0  1  0.10190000  0.89810000  0.50000000  1.0
  Nb0+  Nb1  1  0.89810000  0.10190000  0.50000000  1.0
  Nb0+  Nb2  1  0.39810000  0.39810000  0.00000000  1.0
  Nb0+  Nb3  1  0.60190000  0.60190000  0.00000000  1.0
  Nb0+  Nb4  1  0.31770000  0.68230000  0.24760000  0.875
  Ir0+  Ir5  1  0.31770000  0.68230000  0.24760000  0.125
  Nb0+  Nb6  1  0.68230000  0.31770000  0.24760000  0.875
  Ir0+  Ir7  1  0.68230000  0.31770000  0.24760000  0.125
  Nb0+  Nb8  1  0.18230000  0.18230000  0.74760000  0.875
  Ir0+  Ir9  1  0.18230000  0.18230000  0.74760000  0.125
  Nb0+  Nb10  1  0.81770000  0.81770000  0.74760000  0.875
  Ir0+  Ir11  1  0.81770000  0.81770000  0.74760000  0.125
  Nb0+  Nb12  1  0.68230000  0.31770000  0.75240000  0.875
  Ir0+  Ir13  1  0.68230000  0.31770000  0.75240000  0.125
  Nb0+  Nb14  1  0.31770000  0.68230000  0.75240000  0.875
  Ir0+  Ir15  1  0.31770000  0.68230000  0.75240000  0.125
  Nb0+  Nb16  1  0.81770000  0.81770000  0.25240000  0.875
  Ir0+  Ir17  1  0.81770000  0.81770000  0.25240000  0.125
  Nb0+  Nb18  1  0.18230000  0.18230000  0.25240000  0.875
  Ir0+  Ir19  1  0.18230000  0.18230000  0.25240000  0.125
  Nb0+  Nb20  1  0.36840000  0.96320000  0.50000000  0.825
  Ir0+  Ir21  1  0.36840000  0.96320000  0.50000000  0.125
  Nb0+  Nb22  1  0.63160000  0.03680000  0.50000000  0.825
  Ir0+  Ir23  1  0.63160000  0.03680000  0.50000000  0.125
  Nb0+  Nb24  1  0.13160000  0.46320000  0.00000000  0.825
  Ir0+  Ir25  1  0.13160000  0.46320000  0.00000000  0.125
  Nb0+  Nb26  1  0.86840000  0.53680000  0.00000000  0.825
  Ir0+  Ir27  1  0.86840000  0.53680000  0.00000000  0.125
  Nb0+  Nb28  1  0.96320000  0.36840000  0.50000000  0.825
  Ir0+  Ir29  1  0.96320000  0.36840000  0.50000000  0.125
  Nb0+  Nb30  1  0.03680000  0.63160000  0.50000000  0.825
  Ir0+  Ir31  1  0.03680000  0.63160000  0.50000000  0.125
  Nb0+  Nb32  1  0.46320000  0.13160000  0.00000000  0.825
  Ir0+  Ir33  1  0.46320000  0.13160000  0.00000000  0.125
  Nb0+  Nb34  1  0.53680000  0.86840000  0.00000000  0.825
  Ir0+  Ir35  1  0.53680000  0.86840000  0.00000000  0.125
  Ir0+  Ir36  1  0.50000000  0.50000000  0.50000000  1.0
  Ir0+  Ir37  1  0.00000000  0.00000000  0.00000000  1.0
  Ir0+  Ir38  1  0.43470000  0.23760000  0.50000000  1.0
  Ir0+  Ir39  1  0.56530000  0.76240000  0.50000000  1.0
  Ir0+  Ir40  1  0.06530000  0.73760000  0.00000000  1.0
  Ir0+  Ir41  1  0.93470000  0.26240000  0.00000000  1.0
  Ir0+  Ir42  1  0.23760000  0.43470000  0.50000000  1.0
  Ir0+  Ir43  1  0.76240000  0.56530000  0.50000000  1.0
  Ir0+  Ir44  1  0.73760000  0.06530000  0.00000000  1.0
  Ir0+  Ir45  1  0.26240000  0.93470000  0.00000000  1.0
