# generated using pymatgen
data_La1Tl1.5Sn1.5
_symmetry_space_group_name_H-M   'P 1'
_cell_length_a   4.78500000
_cell_length_b   4.78500000
_cell_length_c   4.78500000
_cell_angle_alpha   90.00000000
_cell_angle_beta   90.00000000
_cell_angle_gamma   90.00000000
_symmetry_Int_Tables_number   1
_chemical_formula_structural   La1Tl1.5Sn1.5
_chemical_formula_sum   'La1 Tl1.5 Sn1.5'
_cell_volume   109.55843663
_cell_formula_units_Z   1
loop_
 _symmetry_equiv_pos_site_id
 _symmetry_equiv_pos_as_xyz
  1  'x, y, z'
loop_
 _atom_type_symbol
 _atom_type_oxidation_number
  La0+  0.0
  Tl0+  0.0
  Sn0+  0.0
loop_
 _atom_site_type_symbol
 _atom_site_label
 _atom_site_symmetry_multiplicity
 _atom_site_fract_x
 _atom_site_fract_y
 _atom_site_fract_z
 _atom_site_occupancy
  La0+  La0  1  0.00000000  0.00000000  0.00000000  1.0
  Tl0+  Tl1  1  0.50000000  0.50000000  0.00000000  0.5
  Sn0+  Sn2  1  0.50000000  0.50000000  0.00000000  0.5
  Tl0+  Tl3  1  0.50000000  0.00000000  0.50000000  0.5
  Sn0+  Sn4  1  0.50000000  0.00000000  0.50000000  0.5
  Tl0+  Tl5  1  0.00000000  0.50000000  0.50000000  0.5
  Sn0+  Sn6  1  0.00000000  0.50000000  0.50000000  0.5
