# generated using pymatgen
data_Lu2.2Rh5.8
_symmetry_space_group_name_H-M   'P 1'
_cell_length_a   7.35500000
_cell_length_b   7.35500000
_cell_length_c   7.35500000
_cell_angle_alpha   90.00000000
_cell_angle_beta   90.00000000
_cell_angle_gamma   90.00000000
_symmetry_Int_Tables_number   1
_chemical_formula_structural   Lu2.2Rh5.8
_chemical_formula_sum   'Lu2.2 Rh5.8'
_cell_volume   397.87626388
_cell_formula_units_Z   1
loop_
 _symmetry_equiv_pos_site_id
 _symmetry_equiv_pos_as_xyz
  1  'x, y, z'
loop_
 _atom_type_symbol
 _atom_type_oxidation_number
  Lu0+  0.0
  Rh0+  0.0
loop_
 _atom_site_type_symbol
 _atom_site_label
 _atom_site_symmetry_multiplicity
 _atom_site_fract_x
 _atom_site_fract_y
 _atom_site_fract_z
 _atom_site_occupancy
  Lu0+  Lu0  1  0.25000000  0.25000000  0.25000000  0.275
  Lu0+  Lu1  1  0.00000000  0.00000000  0.00000000  0.275
  Lu0+  Lu2  1  0.25000000  0.75000000  0.75000000  0.275
  Lu0+  Lu3  1  0.00000000  0.50000000  0.50000000  0.275
  Lu0+  Lu4  1  0.75000000  0.25000000  0.75000000  0.275
  Lu0+  Lu5  1  0.50000000  0.00000000  0.50000000  0.275
  Lu0+  Lu6  1  0.75000000  0.75000000  0.25000000  0.275
  Lu0+  Lu7  1  0.50000000  0.50000000  0.00000000  0.275
  Rh0+  Rh8  1  0.87500000  0.87500000  0.62500000  0.3625
  Rh0+  Rh9  1  0.87500000  0.62500000  0.87500000  0.3625
  Rh0+  Rh10  1  0.62500000  0.87500000  0.87500000  0.3625
  Rh0+  Rh11  1  0.62500000  0.62500000  0.62500000  0.3625
  Rh0+  Rh12  1  0.37500000  0.37500000  0.62500000  0.3625
  Rh0+  Rh13  1  0.37500000  0.62500000  0.37500000  0.3625
  Rh0+  Rh14  1  0.62500000  0.37500000  0.37500000  0.3625
  Rh0+  Rh15  1  0.87500000  0.37500000  0.12500000  0.3625
  Rh0+  Rh16  1  0.87500000  0.12500000  0.37500000  0.3625
  Rh0+  Rh17  1  0.62500000  0.12500000  0.12500000  0.3625
  Rh0+  Rh18  1  0.37500000  0.87500000  0.12500000  0.3625
  Rh0+  Rh19  1  0.37500000  0.12500000  0.87500000  0.3625
  Rh0+  Rh20  1  0.12500000  0.87500000  0.37500000  0.3625
  Rh0+  Rh21  1  0.12500000  0.62500000  0.12500000  0.3625
  Rh0+  Rh22  1  0.12500000  0.37500000  0.87500000  0.3625
  Rh0+  Rh23  1  0.12500000  0.12500000  0.62500000  0.3625
