# generated using pymatgen
data_Re2.4Mo5.6
_symmetry_space_group_name_H-M   'P 1'
_cell_length_a   4.98200000
_cell_length_b   4.98200000
_cell_length_c   4.98200000
_cell_angle_alpha   90.00000000
_cell_angle_beta   90.00000000
_cell_angle_gamma   90.00000000
_symmetry_Int_Tables_number   1
_chemical_formula_structural   Re2.4Mo5.6
_chemical_formula_sum   'Re2.4 Mo5.6'
_cell_volume   123.65485417
_cell_formula_units_Z   1
loop_
 _symmetry_equiv_pos_site_id
 _symmetry_equiv_pos_as_xyz
  1  'x, y, z'
loop_
 _atom_type_symbol
 _atom_type_oxidation_number
  Re0+  0.0
  Mo0+  0.0
loop_
 _atom_site_type_symbol
 _atom_site_label
 _atom_site_symmetry_multiplicity
 _atom_site_fract_x
 _atom_site_fract_y
 _atom_site_fract_z
 _atom_site_occupancy
  Re0+  Re0  1  0.50000000  0.50000000  0.50000000  0.3
  Mo0+  Mo1  1  0.50000000  0.50000000  0.50000000  0.7
  Re0+  Re2  1  0.00000000  0.00000000  0.00000000  0.3
  Mo0+  Mo3  1  0.00000000  0.00000000  0.00000000  0.7
  Re0+  Re4  1  0.00000000  0.50000000  0.75000000  0.3
  Mo0+  Mo5  1  0.00000000  0.50000000  0.75000000  0.7
  Re0+  Re6  1  0.50000000  0.25000000  0.00000000  0.3
  Mo0+  Mo7  1  0.50000000  0.25000000  0.00000000  0.7
  Re0+  Re8  1  0.75000000  0.00000000  0.50000000  0.3
  Mo0+  Mo9  1  0.75000000  0.00000000  0.50000000  0.7
  Re0+  Re10  1  0.00000000  0.50000000  0.25000000  0.3
  Mo0+  Mo11  1  0.00000000  0.50000000  0.25000000  0.7
  Re0+  Re12  1  0.50000000  0.75000000  0.00000000  0.3
  Mo0+  Mo13  1  0.50000000  0.75000000  0.00000000  0.7
  Re0+  Re14  1  0.25000000  0.00000000  0.50000000  0.3
  Mo0+  Mo15  1  0.25000000  0.00000000  0.50000000  0.7
