# generated using pymatgen
data_Tc4.8Mo3.2
_symmetry_space_group_name_H-M   'P 1'
_cell_length_a   4.93500000
_cell_length_b   4.93500000
_cell_length_c   4.93500000
_cell_angle_alpha   90.00000000
_cell_angle_beta   90.00000000
_cell_angle_gamma   90.00000000
_symmetry_Int_Tables_number   1
_chemical_formula_structural   Tc4.8Mo3.2
_chemical_formula_sum   'Tc4.8 Mo3.2'
_cell_volume   120.18810037
_cell_formula_units_Z   1
loop_
 _symmetry_equiv_pos_site_id
 _symmetry_equiv_pos_as_xyz
  1  'x, y, z'
loop_
 _atom_type_symbol
 _atom_type_oxidation_number
  Tc0+  0.0
  Mo0+  0.0
loop_
 _atom_site_type_symbol
 _atom_site_label
 _atom_site_symmetry_multiplicity
 _atom_site_fract_x
 _atom_site_fract_y
 _atom_site_fract_z
 _atom_site_occupancy
  Tc0+  Tc0  1  0.50000000  0.50000000  0.50000000  0.6
  Mo0+  Mo1  1  0.50000000  0.50000000  0.50000000  0.4
  Tc0+  Tc2  1  0.00000000  0.00000000  0.00000000  0.6
  Mo0+  Mo3  1  0.00000000  0.00000000  0.00000000  0.4
  Tc0+  Tc4  1  0.00000000  0.50000000  0.75000000  0.6
  Mo0+  Mo5  1  0.00000000  0.50000000  0.75000000  0.4
  Tc0+  Tc6  1  0.50000000  0.25000000  0.00000000  0.6
  Mo0+  Mo7  1  0.50000000  0.25000000  0.00000000  0.4
  Tc0+  Tc8  1  0.75000000  0.00000000  0.50000000  0.6
  Mo0+  Mo9  1  0.75000000  0.00000000  0.50000000  0.4
  Tc0+  Tc10  1  0.00000000  0.50000000  0.25000000  0.6
  Mo0+  Mo11  1  0.00000000  0.50000000  0.25000000  0.4
  Tc0+  Tc12  1  0.50000000  0.75000000  0.00000000  0.6
  Mo0+  Mo13  1  0.50000000  0.75000000  0.00000000  0.4
  Tc0+  Tc14  1  0.25000000  0.00000000  0.50000000  0.6
  Mo0+  Mo15  1  0.25000000  0.00000000  0.50000000  0.4
