# generated using pymatgen
data_Al10.8Ge1.2
_symmetry_space_group_name_H-M   'P 1'
_cell_length_a   6.13000000
_cell_length_b   6.13000000
_cell_length_c   4.92000000
_cell_angle_alpha   90.00000000
_cell_angle_beta   90.00000000
_cell_angle_gamma   90.00000000
_symmetry_Int_Tables_number   1
_chemical_formula_structural   Al10.8Ge1.2
_chemical_formula_sum   'Al10.8 Ge1.2'
_cell_volume   184.87834800
_cell_formula_units_Z   1
loop_
 _symmetry_equiv_pos_site_id
 _symmetry_equiv_pos_as_xyz
  1  'x, y, z'
loop_
 _atom_type_symbol
 _atom_type_oxidation_number
  Al0+  0.0
  Ge0+  0.0
loop_
 _atom_site_type_symbol
 _atom_site_label
 _atom_site_symmetry_multiplicity
 _atom_site_fract_x
 _atom_site_fract_y
 _atom_site_fract_z
 _atom_site_occupancy
  Al0+  Al0  1  0.00000000  0.00000000  0.25000000  0.9
  Ge0+  Ge1  1  0.00000000  0.00000000  0.25000000  0.1
  Al0+  Al2  1  0.00000000  0.00000000  0.75000000  0.9
  Ge0+  Ge3  1  0.00000000  0.00000000  0.75000000  0.1
  Al0+  Al4  1  0.50000000  0.50000000  0.75000000  0.9
  Ge0+  Ge5  1  0.50000000  0.50000000  0.75000000  0.1
  Al0+  Al6  1  0.50000000  0.50000000  0.25000000  0.9
  Ge0+  Ge7  1  0.50000000  0.50000000  0.25000000  0.1
  Al0+  Al8  1  0.65800000  0.15800000  0.50000000  0.9
  Ge0+  Ge9  1  0.65800000  0.15800000  0.50000000  0.1
  Al0+  Al10  1  0.34200000  0.84200000  0.50000000  0.9
  Ge0+  Ge11  1  0.34200000  0.84200000  0.50000000  0.1
  Al0+  Al12  1  0.34200000  0.15800000  0.00000000  0.9
  Ge0+  Ge13  1  0.34200000  0.15800000  0.00000000  0.1
  Al0+  Al14  1  0.65800000  0.84200000  0.00000000  0.9
  Ge0+  Ge15  1  0.65800000  0.84200000  0.00000000  0.1
  Al0+  Al16  1  0.15800000  0.34200000  0.50000000  0.9
  Ge0+  Ge17  1  0.15800000  0.34200000  0.50000000  0.1
  Al0+  Al18  1  0.84200000  0.65800000  0.50000000  0.9
  Ge0+  Ge19  1  0.84200000  0.65800000  0.50000000  0.1
  Al0+  Al20  1  0.15800000  0.65800000  0.00000000  0.9
  Ge0+  Ge21  1  0.15800000  0.65800000  0.00000000  0.1
  Al0+  Al22  1  0.84200000  0.34200000  0.00000000  0.9
  Ge0+  Ge23  1  0.84200000  0.34200000  0.00000000  0.1
