# generated using pymatgen
data_Nb6Si1.2Sn0.8
_symmetry_space_group_name_H-M   'P 1'
_cell_length_a   5.19000000
_cell_length_b   5.19000000
_cell_length_c   5.19000000
_cell_angle_alpha   90.00000000
_cell_angle_beta   90.00000000
_cell_angle_gamma   90.00000000
_symmetry_Int_Tables_number   1
_chemical_formula_structural   Nb6Si1.2Sn0.8
_chemical_formula_sum   'Nb6 Si1.2 Sn0.8'
_cell_volume   139.79835900
_cell_formula_units_Z   1
loop_
 _symmetry_equiv_pos_site_id
 _symmetry_equiv_pos_as_xyz
  1  'x, y, z'
loop_
 _atom_type_symbol
 _atom_type_oxidation_number
  Nb0+  0.0
  Si0+  0.0
  Sn0+  0.0
loop_
 _atom_site_type_symbol
 _atom_site_label
 _atom_site_symmetry_multiplicity
 _atom_site_fract_x
 _atom_site_fract_y
 _atom_site_fract_z
 _atom_site_occupancy
  Nb0+  Nb0  1  0.00000000  0.50000000  0.75000000  1.0
  Nb0+  Nb1  1  0.50000000  0.25000000  0.00000000  1.0
  Nb0+  Nb2  1  0.75000000  0.00000000  0.50000000  1.0
  Nb0+  Nb3  1  0.00000000  0.50000000  0.25000000  1.0
  Nb0+  Nb4  1  0.50000000  0.75000000  0.00000000  1.0
  Nb0+  Nb5  1  0.25000000  0.00000000  0.50000000  1.0
  Si0+  Si6  1  0.50000000  0.50000000  0.50000000  0.6
  Sn0+  Sn7  1  0.50000000  0.50000000  0.50000000  0.4
  Si0+  Si8  1  0.00000000  0.00000000  0.00000000  0.6
  Sn0+  Sn9  1  0.00000000  0.00000000  0.00000000  0.4
