# generated using pymatgen
data_YTm3(SnPd2)4
_symmetry_space_group_name_H-M   'P 1'
_cell_length_a   6.68100000
_cell_length_b   6.68100000
_cell_length_c   6.68100000
_cell_angle_alpha   90.00000000
_cell_angle_beta   90.00000000
_cell_angle_gamma   90.00000000
_symmetry_Int_Tables_number   1
_chemical_formula_structural   YTm3(SnPd2)4
_chemical_formula_sum   'Y1 Tm3 Sn4 Pd8'
_cell_volume   298.21151924
_cell_formula_units_Z   1
loop_
 _symmetry_equiv_pos_site_id
 _symmetry_equiv_pos_as_xyz
  1  'x, y, z'
loop_
 _atom_type_symbol
 _atom_type_oxidation_number
  Y0+  0.0
  Tm0+  0.0
  Sn0+  0.0
  Pd0+  0.0
loop_
 _atom_site_type_symbol
 _atom_site_label
 _atom_site_symmetry_multiplicity
 _atom_site_fract_x
 _atom_site_fract_y
 _atom_site_fract_z
 _atom_site_occupancy
  Y0+  Y0  1  0.50000000  0.50000000  0.50000000  0.25
  Tm0+  Tm1  1  0.50000000  0.50000000  0.50000000  0.75
  Y0+  Y2  1  0.50000000  0.00000000  0.00000000  0.25
  Tm0+  Tm3  1  0.50000000  0.00000000  0.00000000  0.75
  Y0+  Y4  1  0.00000000  0.50000000  0.00000000  0.25
  Tm0+  Tm5  1  0.00000000  0.50000000  0.00000000  0.75
  Y0+  Y6  1  0.00000000  0.00000000  0.50000000  0.25
  Tm0+  Tm7  1  0.00000000  0.00000000  0.50000000  0.75
  Sn0+  Sn8  1  0.00000000  0.00000000  0.00000000  1.0
  Sn0+  Sn9  1  0.00000000  0.50000000  0.50000000  1.0
  Sn0+  Sn10  1  0.50000000  0.00000000  0.50000000  1.0
  Sn0+  Sn11  1  0.50000000  0.50000000  0.00000000  1.0
  Pd0+  Pd12  1  0.25000000  0.25000000  0.75000000  1.0
  Pd0+  Pd13  1  0.25000000  0.75000000  0.25000000  1.0
  Pd0+  Pd14  1  0.75000000  0.25000000  0.25000000  1.0
  Pd0+  Pd15  1  0.75000000  0.75000000  0.75000000  1.0
  Pd0+  Pd16  1  0.75000000  0.75000000  0.25000000  1.0
  Pd0+  Pd17  1  0.75000000  0.25000000  0.75000000  1.0
  Pd0+  Pd18  1  0.25000000  0.75000000  0.75000000  1.0
  Pd0+  Pd19  1  0.25000000  0.25000000  0.25000000  1.0
