# generated using pymatgen
data_Re0.7W1.3
_symmetry_space_group_name_H-M   'P 1'
_cell_length_a   3.13900000
_cell_length_b   3.13900000
_cell_length_c   3.13900000
_cell_angle_alpha   90.00000000
_cell_angle_beta   90.00000000
_cell_angle_gamma   90.00000000
_symmetry_Int_Tables_number   1
_chemical_formula_structural   Re0.7W1.3
_chemical_formula_sum   'Re0.7 W1.3'
_cell_volume   30.92957462
_cell_formula_units_Z   1
loop_
 _symmetry_equiv_pos_site_id
 _symmetry_equiv_pos_as_xyz
  1  'x, y, z'
loop_
 _atom_type_symbol
 _atom_type_oxidation_number
  Re0+  0.0
  W0+  0.0
loop_
 _atom_site_type_symbol
 _atom_site_label
 _atom_site_symmetry_multiplicity
 _atom_site_fract_x
 _atom_site_fract_y
 _atom_site_fract_z
 _atom_site_occupancy
  Re0+  Re0  1  0.00000000  0.00000000  0.00000000  0.35
  W0+  W1  1  0.00000000  0.00000000  0.00000000  0.65
  Re0+  Re2  1  0.50000000  0.50000000  0.50000000  0.35
  W0+  W3  1  0.50000000  0.50000000  0.50000000  0.65
