# generated using pymatgen
data_Tc1.8W0.2
_symmetry_space_group_name_H-M   'P 1'
_cell_length_a   2.74900000
_cell_length_b   2.74900000
_cell_length_c   4.43400000
_cell_angle_alpha   90.00000000
_cell_angle_beta   90.00000000
_cell_angle_gamma   120.00000000
_symmetry_Int_Tables_number   1
_chemical_formula_structural   Tc1.8W0.2
_chemical_formula_sum   'Tc1.8 W0.2'
_cell_volume   29.01855617
_cell_formula_units_Z   1
loop_
 _symmetry_equiv_pos_site_id
 _symmetry_equiv_pos_as_xyz
  1  'x, y, z'
loop_
 _atom_type_symbol
 _atom_type_oxidation_number
  Tc0+  0.0
  W0+  0.0
loop_
 _atom_site_type_symbol
 _atom_site_label
 _atom_site_symmetry_multiplicity
 _atom_site_fract_x
 _atom_site_fract_y
 _atom_site_fract_z
 _atom_site_occupancy
  Tc0+  Tc0  1  0.33333333  0.66666667  0.25000000  0.9
  W0+  W1  1  0.33333333  0.66666667  0.25000000  0.1
  Tc0+  Tc2  1  0.66666667  0.33333333  0.75000000  0.9
  W0+  W3  1  0.66666667  0.33333333  0.75000000  0.1
