# generated using pymatgen
data_Te0.7Au0.3
_symmetry_space_group_name_H-M   'P 1'
_cell_length_a   2.99400000
_cell_length_b   2.99400000
_cell_length_c   2.99400000
_cell_angle_alpha   90.00000000
_cell_angle_beta   90.00000000
_cell_angle_gamma   90.00000000
_symmetry_Int_Tables_number   1
_chemical_formula_structural   Te0.7Au0.3
_chemical_formula_sum   'Te0.7 Au0.3'
_cell_volume   26.83832378
_cell_formula_units_Z   1
loop_
 _symmetry_equiv_pos_site_id
 _symmetry_equiv_pos_as_xyz
  1  'x, y, z'
loop_
 _atom_type_symbol
 _atom_type_oxidation_number
  Te0+  0.0
  Au0+  0.0
loop_
 _atom_site_type_symbol
 _atom_site_label
 _atom_site_symmetry_multiplicity
 _atom_site_fract_x
 _atom_site_fract_y
 _atom_site_fract_z
 _atom_site_occupancy
  Te0+  Te0  1  0.00000000  0.00000000  0.00000000  0.7
  Au0+  Au1  1  0.00000000  0.00000000  0.00000000  0.3
