# generated using pymatgen
data_HfMoC2
_symmetry_space_group_name_H-M   'P 1'
_cell_length_a   4.49500000
_cell_length_b   4.49500000
_cell_length_c   4.49500000
_cell_angle_alpha   90.00000000
_cell_angle_beta   90.00000000
_cell_angle_gamma   90.00000000
_symmetry_Int_Tables_number   1
_chemical_formula_structural   HfMoC2
_chemical_formula_sum   'Hf2 Mo2 C4'
_cell_volume   90.82158738
_cell_formula_units_Z   2
loop_
 _symmetry_equiv_pos_site_id
 _symmetry_equiv_pos_as_xyz
  1  'x, y, z'
loop_
 _atom_type_symbol
 _atom_type_oxidation_number
  Hf4+  4.0
  Mo4+  4.0
  C4-  -4.0
loop_
 _atom_site_type_symbol
 _atom_site_label
 _atom_site_symmetry_multiplicity
 _atom_site_fract_x
 _atom_site_fract_y
 _atom_site_fract_z
 _atom_site_occupancy
  Hf4+  Hf0  1  0.00000000  0.00000000  0.00000000  0.5
  Mo4+  Mo1  1  0.00000000  0.00000000  0.00000000  0.5
  Hf4+  Hf2  1  0.00000000  0.50000000  0.50000000  0.5
  Mo4+  Mo3  1  0.00000000  0.50000000  0.50000000  0.5
  Hf4+  Hf4  1  0.50000000  0.00000000  0.50000000  0.5
  Mo4+  Mo5  1  0.50000000  0.00000000  0.50000000  0.5
  Hf4+  Hf6  1  0.50000000  0.50000000  0.00000000  0.5
  Mo4+  Mo7  1  0.50000000  0.50000000  0.00000000  0.5
  C4-  C8  1  0.50000000  0.50000000  0.50000000  1.0
  C4-  C9  1  0.50000000  0.00000000  0.00000000  1.0
  C4-  C10  1  0.00000000  0.50000000  0.00000000  1.0
  C4-  C11  1  0.00000000  0.00000000  0.50000000  1.0
