# generated using pymatgen
data_Th1In1.5Sn1.5
_symmetry_space_group_name_H-M   'P 1'
_cell_length_a   4.70500000
_cell_length_b   4.70500000
_cell_length_c   4.70500000
_cell_angle_alpha   90.00000000
_cell_angle_beta   90.00000000
_cell_angle_gamma   90.00000000
_symmetry_Int_Tables_number   1
_chemical_formula_structural   Th1In1.5Sn1.5
_chemical_formula_sum   'Th1 In1.5 Sn1.5'
_cell_volume   104.15470263
_cell_formula_units_Z   1
loop_
 _symmetry_equiv_pos_site_id
 _symmetry_equiv_pos_as_xyz
  1  'x, y, z'
loop_
 _atom_type_symbol
 _atom_type_oxidation_number
  Th0+  0.0
  In0+  0.0
  Sn0+  0.0
loop_
 _atom_site_type_symbol
 _atom_site_label
 _atom_site_symmetry_multiplicity
 _atom_site_fract_x
 _atom_site_fract_y
 _atom_site_fract_z
 _atom_site_occupancy
  Th0+  Th0  1  0.00000000  0.00000000  0.00000000  1.0
  In0+  In1  1  0.50000000  0.50000000  0.00000000  0.5
  Sn0+  Sn2  1  0.50000000  0.50000000  0.00000000  0.5
  In0+  In3  1  0.50000000  0.00000000  0.50000000  0.5
  Sn0+  Sn4  1  0.50000000  0.00000000  0.50000000  0.5
  In0+  In5  1  0.00000000  0.50000000  0.50000000  0.5
  Sn0+  Sn6  1  0.00000000  0.50000000  0.50000000  0.5
