# generated using pymatgen
data_Pd2.4W1.6
_symmetry_space_group_name_H-M   'P 1'
_cell_length_a   3.91800000
_cell_length_b   3.91800000
_cell_length_c   3.91800000
_cell_angle_alpha   90.00000000
_cell_angle_beta   90.00000000
_cell_angle_gamma   90.00000000
_symmetry_Int_Tables_number   1
_chemical_formula_structural   Pd2.4W1.6
_chemical_formula_sum   'Pd2.4 W1.6'
_cell_volume   60.14413663
_cell_formula_units_Z   1
loop_
 _symmetry_equiv_pos_site_id
 _symmetry_equiv_pos_as_xyz
  1  'x, y, z'
loop_
 _atom_type_symbol
 _atom_type_oxidation_number
  Pd0+  0.0
  W0+  0.0
loop_
 _atom_site_type_symbol
 _atom_site_label
 _atom_site_symmetry_multiplicity
 _atom_site_fract_x
 _atom_site_fract_y
 _atom_site_fract_z
 _atom_site_occupancy
  Pd0+  Pd0  1  0.00000000  0.00000000  0.00000000  0.6
  W0+  W1  1  0.00000000  0.00000000  0.00000000  0.4
  Pd0+  Pd2  1  0.00000000  0.50000000  0.50000000  0.6
  W0+  W3  1  0.00000000  0.50000000  0.50000000  0.4
  Pd0+  Pd4  1  0.50000000  0.00000000  0.50000000  0.6
  W0+  W5  1  0.50000000  0.00000000  0.50000000  0.4
  Pd0+  Pd6  1  0.50000000  0.50000000  0.00000000  0.6
  W0+  W7  1  0.50000000  0.50000000  0.00000000  0.4
