# generated using pymatgen
data_U3.6Mo0.4
_symmetry_space_group_name_H-M   'P 1'
_cell_length_a   2.86600000
_cell_length_b   5.75200000
_cell_length_c   4.94000000
_cell_angle_alpha   90.00000000
_cell_angle_beta   90.00000000
_cell_angle_gamma   92.28000000
_symmetry_Int_Tables_number   1
_chemical_formula_structural   U3.6Mo0.4
_chemical_formula_sum   'U3.6 Mo0.4'
_cell_volume   81.37257586
_cell_formula_units_Z   1
loop_
 _symmetry_equiv_pos_site_id
 _symmetry_equiv_pos_as_xyz
  1  'x, y, z'
loop_
 _atom_type_symbol
 _atom_type_oxidation_number
  U0+  0.0
  Mo0+  0.0
loop_
 _atom_site_type_symbol
 _atom_site_label
 _atom_site_symmetry_multiplicity
 _atom_site_fract_x
 _atom_site_fract_y
 _atom_site_fract_z
 _atom_site_occupancy
  U0+  U0  1  0.03600000  0.89800000  0.75000000  0.9
  Mo0+  Mo1  1  0.03600000  0.89800000  0.75000000  0.1
  U0+  U2  1  0.96400000  0.10200000  0.25000000  0.9
  Mo0+  Mo3  1  0.96400000  0.10200000  0.25000000  0.1
  U0+  U4  1  0.53600000  0.39800000  0.75000000  0.9
  Mo0+  Mo5  1  0.53600000  0.39800000  0.75000000  0.1
  U0+  U6  1  0.46400000  0.60200000  0.25000000  0.9
  Mo0+  Mo7  1  0.46400000  0.60200000  0.25000000  0.1
