# generated using pymatgen
data_Mo6Pb0.92S7.5
_symmetry_space_group_name_H-M   'P 1'
_cell_length_a   6.55100000
_cell_length_b   6.55100000
_cell_length_c   6.55100000
_cell_angle_alpha   89.33000000
_cell_angle_beta   89.33000000
_cell_angle_gamma   89.33000000
_symmetry_Int_Tables_number   1
_chemical_formula_structural   Mo6Pb0.92S7.5
_chemical_formula_sum   'Mo6 Pb0.92 S7.5'
_cell_volume   281.08288267
_cell_formula_units_Z   1
loop_
 _symmetry_equiv_pos_site_id
 _symmetry_equiv_pos_as_xyz
  1  'x, y, z'
loop_
 _atom_type_symbol
 _atom_type_oxidation_number
  Mo2.2+  2.2
  Pb2+  2.0
  S2-  -2.0
loop_
 _atom_site_type_symbol
 _atom_site_label
 _atom_site_symmetry_multiplicity
 _atom_site_fract_x
 _atom_site_fract_y
 _atom_site_fract_z
 _atom_site_occupancy
  Mo2.2+  Mo0  1  0.43830000  0.77270000  0.58410000  1.0
  Mo2.2+  Mo1  1  0.58410000  0.43830000  0.77270000  1.0
  Mo2.2+  Mo2  1  0.77270000  0.58410000  0.43830000  1.0
  Mo2.2+  Mo3  1  0.56170000  0.22730000  0.41590000  1.0
  Mo2.2+  Mo4  1  0.41590000  0.56170000  0.22730000  1.0
  Mo2.2+  Mo5  1  0.22730000  0.41590000  0.56170000  1.0
  Pb2+  Pb6  1  0.00000000  0.00000000  0.00000000  0.92
  S2-  S7  1  0.25710000  0.61680000  0.87440000  1.0
  S2-  S8  1  0.87440000  0.25710000  0.61680000  1.0
  S2-  S9  1  0.61680000  0.87440000  0.25710000  1.0
  S2-  S10  1  0.74290000  0.38320000  0.12560000  1.0
  S2-  S11  1  0.12560000  0.74290000  0.38320000  1.0
  S2-  S12  1  0.38320000  0.12560000  0.74290000  1.0
  S2-  S13  1  0.75760000  0.75760000  0.75760000  0.75
  S2-  S14  1  0.24240000  0.24240000  0.24240000  0.75
