# generated using pymatgen
data_Sr2Gd1Ti0.01Cu2Ru0.99O8
_symmetry_space_group_name_H-M   'P 1'
_cell_length_a   3.83780000
_cell_length_b   3.83780000
_cell_length_c   11.56860000
_cell_angle_alpha   90.00000000
_cell_angle_beta   90.00000000
_cell_angle_gamma   90.00000000
_symmetry_Int_Tables_number   1
_chemical_formula_structural   Sr2Gd1Ti0.01Cu2Ru0.99O8
_chemical_formula_sum   'Sr2 Gd1 Ti0.01 Cu2 Ru0.99 O8'
_cell_volume   170.39054109
_cell_formula_units_Z   1
loop_
 _symmetry_equiv_pos_site_id
 _symmetry_equiv_pos_as_xyz
  1  'x, y, z'
loop_
 _atom_type_symbol
 _atom_type_oxidation_number
  Sr2+  2.0
  Gd3+  3.0
  Ti4+  4.0
  Cu2.005+  2.005
  Ru5+  5.0
  O2-  -2.0
loop_
 _atom_site_type_symbol
 _atom_site_label
 _atom_site_symmetry_multiplicity
 _atom_site_fract_x
 _atom_site_fract_y
 _atom_site_fract_z
 _atom_site_occupancy
  Sr2+  Sr0  1  0.50000000  0.50000000  0.69090000  1.0
  Sr2+  Sr1  1  0.50000000  0.50000000  0.30910000  1.0
  Gd3+  Gd2  1  0.50000000  0.50000000  0.00000000  1.0
  Cu2.005+  Cu3  1  0.00000000  0.00000000  0.85010000  1.0
  Cu2.005+  Cu4  1  0.00000000  0.00000000  0.14990000  1.0
  Ti4+  Ti5  1  0.00000000  0.00000000  0.50000000  0.01
  Ru5+  Ru6  1  0.00000000  0.00000000  0.50000000  0.99
  O2-  O7  1  0.50000000  0.00000000  0.87700000  1.0
  O2-  O8  1  0.00000000  0.50000000  0.87700000  1.0
  O2-  O9  1  0.50000000  0.00000000  0.12300000  1.0
  O2-  O10  1  0.00000000  0.50000000  0.12300000  1.0
  O2-  O11  1  0.00000000  0.01400000  0.67100000  0.25
  O2-  O12  1  0.00000000  0.98600000  0.67100000  0.25
  O2-  O13  1  0.98600000  0.00000000  0.67100000  0.25
  O2-  O14  1  0.01400000  0.00000000  0.67100000  0.25
  O2-  O15  1  0.00000000  0.98600000  0.32900000  0.25
  O2-  O16  1  0.00000000  0.01400000  0.32900000  0.25
  O2-  O17  1  0.01400000  0.00000000  0.32900000  0.25
  O2-  O18  1  0.98600000  0.00000000  0.32900000  0.25
  O2-  O19  1  0.50000000  0.12000000  0.50000000  0.5
  O2-  O20  1  0.50000000  0.88000000  0.50000000  0.5
  O2-  O21  1  0.88000000  0.50000000  0.50000000  0.5
  O2-  O22  1  0.12000000  0.50000000  0.50000000  0.5
