# generated using pymatgen
data_Ba1Sr1Ca0.2Y0.8Cu2.8B0.2O7.0
_symmetry_space_group_name_H-M   'P 1'
_cell_length_a   3.82600000
_cell_length_b   3.86100000
_cell_length_c   11.56100000
_cell_angle_alpha   90.00000000
_cell_angle_beta   90.00000000
_cell_angle_gamma   90.00000000
_symmetry_Int_Tables_number   1
_chemical_formula_structural   Ba1Sr1Ca0.2Y0.8Cu2.8B0.2O7.0
_chemical_formula_sum   'Ba1 Sr1 Ca0.2 Y0.8 Cu2.8 B0.2 O7.0'
_cell_volume   170.78124235
_cell_formula_units_Z   1
loop_
 _symmetry_equiv_pos_site_id
 _symmetry_equiv_pos_as_xyz
  1  'x, y, z'
loop_
 _atom_type_symbol
 _atom_type_oxidation_number
  Ba2+  2.0
  Sr2+  2.0
  Ca2+  2.0
  Y3+  3.0
  Cu2.36+  2.36
  B3+  3.0
  O2-  -2.0
loop_
 _atom_site_type_symbol
 _atom_site_label
 _atom_site_symmetry_multiplicity
 _atom_site_fract_x
 _atom_site_fract_y
 _atom_site_fract_z
 _atom_site_occupancy
  Ba2+  Ba0  1  0.50000000  0.50000000  0.82000000  0.5
  Ba2+  Ba1  1  0.50000000  0.50000000  0.18000000  0.5
  Sr2+  Sr2  1  0.50000000  0.50000000  0.17000000  0.5
  Sr2+  Sr3  1  0.50000000  0.50000000  0.83000000  0.5
  Ca2+  Ca4  1  0.50000000  0.50000000  0.50000000  0.2
  Y3+  Y5  1  0.50000000  0.50000000  0.50000000  0.8
  Cu2.36+  Cu6  1  0.00000000  0.00000000  0.35000000  1.0
  Cu2.36+  Cu7  1  0.00000000  0.00000000  0.65000000  1.0
  Cu2.36+  Cu8  1  0.00000000  0.00000000  0.00000000  0.8
  B3+  B9  1  0.12000000  0.88000000  0.00000000  0.05
  B3+  B10  1  0.88000000  0.12000000  0.00000000  0.05
  B3+  B11  1  0.12000000  0.12000000  0.00000000  0.05
  B3+  B12  1  0.88000000  0.88000000  0.00000000  0.05
  O2-  O13  1  0.00000000  0.50000000  0.35000000  1.0
  O2-  O14  1  0.00000000  0.50000000  0.65000000  1.0
  O2-  O15  1  0.50000000  0.00000000  0.35000000  1.0
  O2-  O16  1  0.50000000  0.00000000  0.65000000  1.0
  O2-  O17  1  0.00000000  0.00000000  0.17000000  1.0
  O2-  O18  1  0.00000000  0.00000000  0.83000000  1.0
  O2-  O19  1  0.40000000  0.60000000  0.00000000  0.05
  O2-  O20  1  0.60000000  0.40000000  0.00000000  0.05
  O2-  O21  1  0.40000000  0.40000000  0.00000000  0.05
  O2-  O22  1  0.60000000  0.60000000  0.00000000  0.05
  O2-  O23  1  0.00000000  0.00000000  0.15000000  0.1
  O2-  O24  1  0.00000000  0.00000000  0.85000000  0.1
  O2-  O25  1  0.00000000  0.00000000  0.88000000  0.1
  O2-  O26  1  0.00000000  0.00000000  0.12000000  0.1
  O2-  O27  1  0.00000000  0.50000000  0.00000000  0.4
