# generated using pymatgen
data_Sr2Gd1Cu2Ru0.925Rh0.075O8
_symmetry_space_group_name_H-M   'P 1'
_cell_length_a   3.83620000
_cell_length_b   3.83620000
_cell_length_c   11.56530000
_cell_angle_alpha   90.00000000
_cell_angle_beta   90.00000000
_cell_angle_gamma   90.00000000
_symmetry_Int_Tables_number   1
_chemical_formula_structural   Sr2Gd1Cu2Ru0.925Rh0.075O8
_chemical_formula_sum   'Sr2 Gd1 Cu2 Ru0.925 Rh0.075 O8'
_cell_volume   170.19993297
_cell_formula_units_Z   1
loop_
 _symmetry_equiv_pos_site_id
 _symmetry_equiv_pos_as_xyz
  1  'x, y, z'
loop_
 _atom_type_symbol
 _atom_type_oxidation_number
  Sr2+  2.0
  Gd3+  3.0
  Cu2.075+  2.075
  Ru5+  5.0
  Rh3+  3.0
  O2-  -2.0
loop_
 _atom_site_type_symbol
 _atom_site_label
 _atom_site_symmetry_multiplicity
 _atom_site_fract_x
 _atom_site_fract_y
 _atom_site_fract_z
 _atom_site_occupancy
  Sr2+  Sr0  1  0.50000000  0.50000000  0.68870000  1.0
  Sr2+  Sr1  1  0.50000000  0.50000000  0.31130000  1.0
  Gd3+  Gd2  1  0.50000000  0.50000000  0.00000000  1.0
  Cu2.075+  Cu3  1  0.00000000  0.00000000  0.85250000  1.0
  Cu2.075+  Cu4  1  0.00000000  0.00000000  0.14750000  1.0
  Ru5+  Ru5  1  0.00000000  0.00000000  0.50000000  0.925
  Rh3+  Rh6  1  0.00000000  0.00000000  0.50000000  0.075
  O2-  O7  1  0.50000000  0.00000000  0.87300000  1.0
  O2-  O8  1  0.00000000  0.50000000  0.87300000  1.0
  O2-  O9  1  0.50000000  0.00000000  0.12700000  1.0
  O2-  O10  1  0.00000000  0.50000000  0.12700000  1.0
  O2-  O11  1  0.00000000  0.01400000  0.66700000  0.25
  O2-  O12  1  0.00000000  0.98600000  0.66700000  0.25
  O2-  O13  1  0.98600000  0.00000000  0.66700000  0.25
  O2-  O14  1  0.01400000  0.00000000  0.66700000  0.25
  O2-  O15  1  0.00000000  0.98600000  0.33300000  0.25
  O2-  O16  1  0.00000000  0.01400000  0.33300000  0.25
  O2-  O17  1  0.01400000  0.00000000  0.33300000  0.25
  O2-  O18  1  0.98600000  0.00000000  0.33300000  0.25
  O2-  O19  1  0.50000000  0.13500000  0.50000000  0.5
  O2-  O20  1  0.50000000  0.86500000  0.50000000  0.5
  O2-  O21  1  0.86500000  0.50000000  0.50000000  0.5
  O2-  O22  1  0.13500000  0.50000000  0.50000000  0.5
