# generated using pymatgen
data_Sr2Gd1Cu2Ru0.8Rh0.2O8
_symmetry_space_group_name_H-M   'P 1'
_cell_length_a   3.83680000
_cell_length_b   3.83680000
_cell_length_c   11.55590000
_cell_angle_alpha   90.00000000
_cell_angle_beta   90.00000000
_cell_angle_gamma   90.00000000
_symmetry_Int_Tables_number   1
_chemical_formula_structural   Sr2Gd1Cu2Ru0.8Rh0.2O8
_chemical_formula_sum   'Sr2 Gd1 Cu2 Ru0.8 Rh0.2 O8'
_cell_volume   170.11479957
_cell_formula_units_Z   1
loop_
 _symmetry_equiv_pos_site_id
 _symmetry_equiv_pos_as_xyz
  1  'x, y, z'
loop_
 _atom_type_symbol
 _atom_type_oxidation_number
  Sr2+  2.0
  Gd3+  3.0
  Cu2.2+  2.2
  Ru5+  5.0
  Rh3+  3.0
  O2-  -2.0
loop_
 _atom_site_type_symbol
 _atom_site_label
 _atom_site_symmetry_multiplicity
 _atom_site_fract_x
 _atom_site_fract_y
 _atom_site_fract_z
 _atom_site_occupancy
  Sr2+  Sr0  1  0.50000000  0.50000000  0.68870000  1.0
  Sr2+  Sr1  1  0.50000000  0.50000000  0.31130000  1.0
  Gd3+  Gd2  1  0.50000000  0.50000000  0.00000000  1.0
  Cu2.2+  Cu3  1  0.00000000  0.00000000  0.85280000  1.0
  Cu2.2+  Cu4  1  0.00000000  0.00000000  0.14720000  1.0
  Ru5+  Ru5  1  0.00000000  0.00000000  0.50000000  0.8
  Rh3+  Rh6  1  0.00000000  0.00000000  0.50000000  0.2
  O2-  O7  1  0.50000000  0.00000000  0.87500000  1.0
  O2-  O8  1  0.00000000  0.50000000  0.87500000  1.0
  O2-  O9  1  0.50000000  0.00000000  0.12500000  1.0
  O2-  O10  1  0.00000000  0.50000000  0.12500000  1.0
  O2-  O11  1  0.00000000  0.04700000  0.66500000  0.25
  O2-  O12  1  0.00000000  0.95300000  0.66500000  0.25
  O2-  O13  1  0.95300000  0.00000000  0.66500000  0.25
  O2-  O14  1  0.04700000  0.00000000  0.66500000  0.25
  O2-  O15  1  0.00000000  0.95300000  0.33500000  0.25
  O2-  O16  1  0.00000000  0.04700000  0.33500000  0.25
  O2-  O17  1  0.04700000  0.00000000  0.33500000  0.25
  O2-  O18  1  0.95300000  0.00000000  0.33500000  0.25
  O2-  O19  1  0.50000000  0.12500000  0.50000000  0.5
  O2-  O20  1  0.50000000  0.87500000  0.50000000  0.5
  O2-  O21  1  0.87500000  0.50000000  0.50000000  0.5
  O2-  O22  1  0.12500000  0.50000000  0.50000000  0.5
