# generated using pymatgen
data_Li8.8Ti15.2O32
_symmetry_space_group_name_H-M   'P 1'
_cell_length_a   8.37800000
_cell_length_b   8.37800000
_cell_length_c   8.37800000
_cell_angle_alpha   90.00000000
_cell_angle_beta   90.00000000
_cell_angle_gamma   90.00000000
_symmetry_Int_Tables_number   1
_chemical_formula_structural   Li8.8Ti15.2O32
_chemical_formula_sum   'Li8.8 Ti15.2 O32'
_cell_volume   588.05922615
_cell_formula_units_Z   1
loop_
 _symmetry_equiv_pos_site_id
 _symmetry_equiv_pos_as_xyz
  1  'x, y, z'
loop_
 _atom_type_symbol
 _atom_type_oxidation_number
  Li+  1.0
  Ti3.63+  3.63
  O2-  -2.0
loop_
 _atom_site_type_symbol
 _atom_site_label
 _atom_site_symmetry_multiplicity
 _atom_site_fract_x
 _atom_site_fract_y
 _atom_site_fract_z
 _atom_site_occupancy
  Li+  Li0  1  0.25000000  0.25000000  0.25000000  1.0
  Li+  Li1  1  0.00000000  0.00000000  0.00000000  1.0
  Li+  Li2  1  0.25000000  0.75000000  0.75000000  1.0
  Li+  Li3  1  0.00000000  0.50000000  0.50000000  1.0
  Li+  Li4  1  0.75000000  0.25000000  0.75000000  1.0
  Li+  Li5  1  0.50000000  0.00000000  0.50000000  1.0
  Li+  Li6  1  0.75000000  0.75000000  0.25000000  1.0
  Li+  Li7  1  0.50000000  0.50000000  0.00000000  1.0
  Li+  Li8  1  0.87500000  0.87500000  0.62500000  0.05
  Ti3.63+  Ti9  1  0.87500000  0.87500000  0.62500000  0.95
  Li+  Li10  1  0.87500000  0.62500000  0.87500000  0.05
  Ti3.63+  Ti11  1  0.87500000  0.62500000  0.87500000  0.95
  Li+  Li12  1  0.62500000  0.87500000  0.87500000  0.05
  Ti3.63+  Ti13  1  0.62500000  0.87500000  0.87500000  0.95
  Li+  Li14  1  0.62500000  0.62500000  0.62500000  0.05
  Ti3.63+  Ti15  1  0.62500000  0.62500000  0.62500000  0.95
  Li+  Li16  1  0.37500000  0.37500000  0.62500000  0.05
  Ti3.63+  Ti17  1  0.37500000  0.37500000  0.62500000  0.95
  Li+  Li18  1  0.37500000  0.62500000  0.37500000  0.05
  Ti3.63+  Ti19  1  0.37500000  0.62500000  0.37500000  0.95
  Li+  Li20  1  0.62500000  0.37500000  0.37500000  0.05
  Ti3.63+  Ti21  1  0.62500000  0.37500000  0.37500000  0.95
  Li+  Li22  1  0.87500000  0.37500000  0.12500000  0.05
  Ti3.63+  Ti23  1  0.87500000  0.37500000  0.12500000  0.95
  Li+  Li24  1  0.87500000  0.12500000  0.37500000  0.05
  Ti3.63+  Ti25  1  0.87500000  0.12500000  0.37500000  0.95
  Li+  Li26  1  0.62500000  0.12500000  0.12500000  0.05
  Ti3.63+  Ti27  1  0.62500000  0.12500000  0.12500000  0.95
  Li+  Li28  1  0.37500000  0.87500000  0.12500000  0.05
  Ti3.63+  Ti29  1  0.37500000  0.87500000  0.12500000  0.95
  Li+  Li30  1  0.37500000  0.12500000  0.87500000  0.05
  Ti3.63+  Ti31  1  0.37500000  0.12500000  0.87500000  0.95
  Li+  Li32  1  0.12500000  0.87500000  0.37500000  0.05
  Ti3.63+  Ti33  1  0.12500000  0.87500000  0.37500000  0.95
  Li+  Li34  1  0.12500000  0.62500000  0.12500000  0.05
  Ti3.63+  Ti35  1  0.12500000  0.62500000  0.12500000  0.95
  Li+  Li36  1  0.12500000  0.37500000  0.87500000  0.05
  Ti3.63+  Ti37  1  0.12500000  0.37500000  0.87500000  0.95
  Li+  Li38  1  0.12500000  0.12500000  0.62500000  0.05
  Ti3.63+  Ti39  1  0.12500000  0.12500000  0.62500000  0.95
  O2-  O40  1  0.63800000  0.63800000  0.86200000  1.0
  O2-  O41  1  0.63800000  0.86200000  0.63800000  1.0
  O2-  O42  1  0.86200000  0.63800000  0.63800000  1.0
  O2-  O43  1  0.86200000  0.86200000  0.86200000  1.0
  O2-  O44  1  0.61200000  0.61200000  0.38800000  1.0
  O2-  O45  1  0.61200000  0.38800000  0.61200000  1.0
  O2-  O46  1  0.38800000  0.61200000  0.61200000  1.0
  O2-  O47  1  0.38800000  0.38800000  0.38800000  1.0
  O2-  O48  1  0.63800000  0.13800000  0.36200000  1.0
  O2-  O49  1  0.63800000  0.36200000  0.13800000  1.0
  O2-  O50  1  0.86200000  0.13800000  0.13800000  1.0
  O2-  O51  1  0.86200000  0.36200000  0.36200000  1.0
  O2-  O52  1  0.61200000  0.11200000  0.88800000  1.0
  O2-  O53  1  0.61200000  0.88800000  0.11200000  1.0
  O2-  O54  1  0.38800000  0.11200000  0.11200000  1.0
  O2-  O55  1  0.38800000  0.88800000  0.88800000  1.0
  O2-  O56  1  0.13800000  0.63800000  0.36200000  1.0
  O2-  O57  1  0.13800000  0.86200000  0.13800000  1.0
  O2-  O58  1  0.36200000  0.63800000  0.13800000  1.0
  O2-  O59  1  0.36200000  0.86200000  0.36200000  1.0
  O2-  O60  1  0.11200000  0.61200000  0.88800000  1.0
  O2-  O61  1  0.11200000  0.38800000  0.11200000  1.0
  O2-  O62  1  0.88800000  0.61200000  0.11200000  1.0
  O2-  O63  1  0.88800000  0.38800000  0.88800000  1.0
  O2-  O64  1  0.13800000  0.13800000  0.86200000  1.0
  O2-  O65  1  0.13800000  0.36200000  0.63800000  1.0
  O2-  O66  1  0.36200000  0.13800000  0.63800000  1.0
  O2-  O67  1  0.36200000  0.36200000  0.86200000  1.0
  O2-  O68  1  0.11200000  0.11200000  0.38800000  1.0
  O2-  O69  1  0.11200000  0.88800000  0.61200000  1.0
  O2-  O70  1  0.88800000  0.11200000  0.61200000  1.0
  O2-  O71  1  0.88800000  0.88800000  0.38800000  1.0
