# generated using pymatgen
data_Rb1.186W6O18
_symmetry_space_group_name_H-M   'P 1'
_cell_length_a   7.40420000
_cell_length_b   7.40420000
_cell_length_c   7.53760000
_cell_angle_alpha   90.00000000
_cell_angle_beta   90.00000000
_cell_angle_gamma   120.00000000
_symmetry_Int_Tables_number   1
_chemical_formula_structural   Rb1.186W6O18
_chemical_formula_sum   'Rb1.186 W6 O18'
_cell_volume   357.86563914
_cell_formula_units_Z   1
loop_
 _symmetry_equiv_pos_site_id
 _symmetry_equiv_pos_as_xyz
  1  'x, y, z'
loop_
 _atom_type_symbol
 _atom_type_oxidation_number
  Rb+  1.0
  W5.8+  5.8
  O2-  -2.0
loop_
 _atom_site_type_symbol
 _atom_site_label
 _atom_site_symmetry_multiplicity
 _atom_site_fract_x
 _atom_site_fract_y
 _atom_site_fract_z
 _atom_site_occupancy
  Rb+  Rb0  1  0.00000000  0.00000000  0.50000000  0.593
  Rb+  Rb1  1  0.00000000  0.00000000  0.00000000  0.593
  W5.8+  W2  1  0.52452000  0.52452000  0.25000000  1.0
  W5.8+  W3  1  0.47548000  0.00000000  0.25000000  1.0
  W5.8+  W4  1  0.00000000  0.47548000  0.25000000  1.0
  W5.8+  W5  1  0.47548000  0.47548000  0.75000000  1.0
  W5.8+  W6  1  0.52452000  0.00000000  0.75000000  1.0
  W5.8+  W7  1  0.00000000  0.52452000  0.75000000  1.0
  O2-  O8  1  0.78550000  0.20990000  0.25000000  1.0
  O2-  O9  1  0.79010000  0.57560000  0.25000000  1.0
  O2-  O10  1  0.42440000  0.21450000  0.25000000  1.0
  O2-  O11  1  0.20990000  0.78550000  0.25000000  1.0
  O2-  O12  1  0.57560000  0.79010000  0.25000000  1.0
  O2-  O13  1  0.21450000  0.42440000  0.25000000  1.0
  O2-  O14  1  0.21450000  0.79010000  0.75000000  1.0
  O2-  O15  1  0.20990000  0.42440000  0.75000000  1.0
  O2-  O16  1  0.57560000  0.78550000  0.75000000  1.0
  O2-  O17  1  0.79010000  0.21450000  0.75000000  1.0
  O2-  O18  1  0.42440000  0.20990000  0.75000000  1.0
  O2-  O19  1  0.78550000  0.57560000  0.75000000  1.0
  O2-  O20  1  0.00000000  0.50000000  0.50000000  1.0
  O2-  O21  1  0.50000000  0.50000000  0.50000000  1.0
  O2-  O22  1  0.50000000  0.00000000  0.50000000  1.0
  O2-  O23  1  0.00000000  0.50000000  0.00000000  1.0
  O2-  O24  1  0.50000000  0.50000000  0.00000000  1.0
  O2-  O25  1  0.50000000  0.00000000  0.00000000  1.0
