# generated using pymatgen
data_Tb2Fe2As2O1.8F0.2
_symmetry_space_group_name_H-M   'P 1'
_cell_length_a   3.86340000
_cell_length_b   3.86340000
_cell_length_c   8.33300000
_cell_angle_alpha   90.00000000
_cell_angle_beta   90.00000000
_cell_angle_gamma   90.00000000
_symmetry_Int_Tables_number   1
_chemical_formula_structural   Tb2Fe2As2O1.8F0.2
_chemical_formula_sum   'Tb2 Fe2 As2 O1.8 F0.2'
_cell_volume   124.37718771
_cell_formula_units_Z   1
loop_
 _symmetry_equiv_pos_site_id
 _symmetry_equiv_pos_as_xyz
  1  'x, y, z'
loop_
 _atom_type_symbol
 _atom_type_oxidation_number
  Tb2.9+  2.9
  Fe2+  2.0
  As3-  -3.0
  O2-  -2.0
  F-  -1.0
loop_
 _atom_site_type_symbol
 _atom_site_label
 _atom_site_symmetry_multiplicity
 _atom_site_fract_x
 _atom_site_fract_y
 _atom_site_fract_z
 _atom_site_occupancy
  Tb2.9+  Tb0  1  0.75000000  0.75000000  0.85530000  1.0
  Tb2.9+  Tb1  1  0.25000000  0.25000000  0.14470000  1.0
  Fe2+  Fe2  1  0.75000000  0.25000000  0.50000000  1.0
  Fe2+  Fe3  1  0.25000000  0.75000000  0.50000000  1.0
  As3-  As4  1  0.75000000  0.75000000  0.33460000  1.0
  As3-  As5  1  0.25000000  0.25000000  0.66540000  1.0
  O2-  O6  1  0.75000000  0.25000000  0.00000000  0.9
  F-  F7  1  0.75000000  0.25000000  0.00000000  0.1
  O2-  O8  1  0.25000000  0.75000000  0.00000000  0.9
  F-  F9  1  0.25000000  0.75000000  0.00000000  0.1
