# generated using pymatgen
data_Fe2Se1.82
_symmetry_space_group_name_H-M   'P 1'
_cell_length_a   3.77376000
_cell_length_b   3.77376000
_cell_length_c   5.52482000
_cell_angle_alpha   90.00000000
_cell_angle_beta   90.00000000
_cell_angle_gamma   90.00000000
_symmetry_Int_Tables_number   1
_chemical_formula_structural   Fe2Se1.82
_chemical_formula_sum   'Fe2 Se1.82'
_cell_volume   78.68042314
_cell_formula_units_Z   1
loop_
 _symmetry_equiv_pos_site_id
 _symmetry_equiv_pos_as_xyz
  1  'x, y, z'
loop_
 _atom_type_symbol
 _atom_type_oxidation_number
  Fe1.82+  1.82
  Se2-  -2.0
loop_
 _atom_site_type_symbol
 _atom_site_label
 _atom_site_symmetry_multiplicity
 _atom_site_fract_x
 _atom_site_fract_y
 _atom_site_fract_z
 _atom_site_occupancy
  Fe1.82+  Fe0  1  0.50000000  0.50000000  0.00000000  1.0
  Fe1.82+  Fe1  1  0.00000000  0.00000000  0.00000000  1.0
  Se2-  Se2  1  0.00000000  0.50000000  0.26520000  0.91
  Se2-  Se3  1  0.50000000  0.00000000  0.73480000  0.91
