# generated using pymatgen
data_Li0.1Mg0.9B1.82C0.18
_symmetry_space_group_name_H-M   'P 1'
_cell_length_a   3.05300000
_cell_length_b   3.05300000
_cell_length_c   3.52200000
_cell_angle_alpha   90.00000000
_cell_angle_beta   90.00000000
_cell_angle_gamma   120.00000000
_symmetry_Int_Tables_number   1
_chemical_formula_structural   Li0.1Mg0.9B1.82C0.18
_chemical_formula_sum   'Li0.1 Mg0.9 B1.82 C0.18'
_cell_volume   28.42978608
_cell_formula_units_Z   1
loop_
 _symmetry_equiv_pos_site_id
 _symmetry_equiv_pos_as_xyz
  1  'x, y, z'
loop_
 _atom_type_symbol
 _atom_type_oxidation_number
  Li+  1.0
  Mg2+  2.0
  B0.95-  -0.95
  C0.95-  -0.95
loop_
 _atom_site_type_symbol
 _atom_site_label
 _atom_site_symmetry_multiplicity
 _atom_site_fract_x
 _atom_site_fract_y
 _atom_site_fract_z
 _atom_site_occupancy
  Li+  Li0  1  0.00000000  0.00000000  0.00000000  0.1
  Mg2+  Mg1  1  0.00000000  0.00000000  0.00000000  0.9
  B0.95-  B2  1  0.66666667  0.33333333  0.50000000  0.91
  C0.95-  C3  1  0.66666667  0.33333333  0.50000000  0.09
  B0.95-  B4  1  0.33333333  0.66666667  0.50000000  0.91
  C0.95-  C5  1  0.33333333  0.66666667  0.50000000  0.09
