# generated using pymatgen
data_Li0.09Mg0.91B1.84C0.16
_symmetry_space_group_name_H-M   'P 1'
_cell_length_a   3.05610000
_cell_length_b   3.05610000
_cell_length_c   3.51900000
_cell_angle_alpha   90.00000000
_cell_angle_beta   90.00000000
_cell_angle_gamma   120.00000000
_symmetry_Int_Tables_number   1
_chemical_formula_structural   Li0.09Mg0.91B1.84C0.16
_chemical_formula_sum   'Li0.09 Mg0.91 B1.84 C0.16'
_cell_volume   28.46328493
_cell_formula_units_Z   1
loop_
 _symmetry_equiv_pos_site_id
 _symmetry_equiv_pos_as_xyz
  1  'x, y, z'
loop_
 _atom_type_symbol
 _atom_type_oxidation_number
  Li+  1.0
  Mg2+  2.0
  B0.955-  -0.955
  C0.955-  -0.955
loop_
 _atom_site_type_symbol
 _atom_site_label
 _atom_site_symmetry_multiplicity
 _atom_site_fract_x
 _atom_site_fract_y
 _atom_site_fract_z
 _atom_site_occupancy
  Li+  Li0  1  0.00000000  0.00000000  0.00000000  0.09
  Mg2+  Mg1  1  0.00000000  0.00000000  0.00000000  0.91
  B0.955-  B2  1  0.66666667  0.33333333  0.50000000  0.92
  C0.955-  C3  1  0.66666667  0.33333333  0.50000000  0.08
  B0.955-  B4  1  0.33333333  0.66666667  0.50000000  0.92
  C0.955-  C5  1  0.33333333  0.66666667  0.50000000  0.08
