# generated using pymatgen
data_Ce4Fe4As4O3.68F0.32
_symmetry_space_group_name_H-M   'P 1'
_cell_length_a   5.64500000
_cell_length_b   5.63520000
_cell_length_c   8.62870000
_cell_angle_alpha   90.00000000
_cell_angle_beta   90.00000000
_cell_angle_gamma   90.00000000
_symmetry_Int_Tables_number   1
_chemical_formula_structural   Ce4Fe4As4O3.68F0.32
_chemical_formula_sum   'Ce4 Fe4 As4 O3.68 F0.32'
_cell_volume   274.48502160
_cell_formula_units_Z   1
loop_
 _symmetry_equiv_pos_site_id
 _symmetry_equiv_pos_as_xyz
  1  'x, y, z'
loop_
 _atom_type_symbol
 _atom_type_oxidation_number
  Ce3+  3.0
  Fe1.92+  1.92
  As3-  -3.0
  O2-  -2.0
  F-  -1.0
loop_
 _atom_site_type_symbol
 _atom_site_label
 _atom_site_symmetry_multiplicity
 _atom_site_fract_x
 _atom_site_fract_y
 _atom_site_fract_z
 _atom_site_occupancy
  Ce3+  Ce0  1  0.50000000  0.25000000  0.85680000  1.0
  Ce3+  Ce1  1  0.50000000  0.75000000  0.14320000  1.0
  Ce3+  Ce2  1  0.00000000  0.25000000  0.14320000  1.0
  Ce3+  Ce3  1  0.00000000  0.75000000  0.85680000  1.0
  Fe1.92+  Fe4  1  0.75000000  0.00000000  0.50000000  1.0
  Fe1.92+  Fe5  1  0.25000000  0.00000000  0.50000000  1.0
  Fe1.92+  Fe6  1  0.25000000  0.50000000  0.50000000  1.0
  Fe1.92+  Fe7  1  0.75000000  0.50000000  0.50000000  1.0
  As3-  As8  1  0.50000000  0.25000000  0.34450000  1.0
  As3-  As9  1  0.50000000  0.75000000  0.65550000  1.0
  As3-  As10  1  0.00000000  0.25000000  0.65550000  1.0
  As3-  As11  1  0.00000000  0.75000000  0.34450000  1.0
  O2-  O12  1  0.75000000  0.00000000  0.00000000  0.92
  F-  F13  1  0.75000000  0.00000000  0.00000000  0.08
  O2-  O14  1  0.25000000  0.00000000  0.00000000  0.92
  F-  F15  1  0.25000000  0.00000000  0.00000000  0.08
  O2-  O16  1  0.25000000  0.50000000  0.00000000  0.92
  F-  F17  1  0.25000000  0.50000000  0.00000000  0.08
  O2-  O18  1  0.75000000  0.50000000  0.00000000  0.92
  F-  F19  1  0.75000000  0.50000000  0.00000000  0.08
