# generated using pymatgen
data_Nd2Fe2As2O1.6F0.4
_symmetry_space_group_name_H-M   'P 1'
_cell_length_a   3.94950000
_cell_length_b   3.94950000
_cell_length_c   8.53700000
_cell_angle_alpha   90.00000000
_cell_angle_beta   90.00000000
_cell_angle_gamma   90.00000000
_symmetry_Int_Tables_number   1
_chemical_formula_structural   Nd2Fe2As2O1.6F0.4
_chemical_formula_sum   'Nd2 Fe2 As2 O1.6 F0.4'
_cell_volume   133.16482348
_cell_formula_units_Z   1
loop_
 _symmetry_equiv_pos_site_id
 _symmetry_equiv_pos_as_xyz
  1  'x, y, z'
loop_
 _atom_type_symbol
 _atom_type_oxidation_number
  Nd2.8+  2.8
  Fe2+  2.0
  As3-  -3.0
  O2-  -2.0
  F-  -1.0
loop_
 _atom_site_type_symbol
 _atom_site_label
 _atom_site_symmetry_multiplicity
 _atom_site_fract_x
 _atom_site_fract_y
 _atom_site_fract_z
 _atom_site_occupancy
  Nd2.8+  Nd0  1  0.75000000  0.75000000  0.85790000  1.0
  Nd2.8+  Nd1  1  0.25000000  0.25000000  0.14210000  1.0
  Fe2+  Fe2  1  0.75000000  0.25000000  0.50000000  1.0
  Fe2+  Fe3  1  0.25000000  0.75000000  0.50000000  1.0
  As3-  As4  1  0.75000000  0.75000000  0.34010000  1.0
  As3-  As5  1  0.25000000  0.25000000  0.65990000  1.0
  O2-  O6  1  0.75000000  0.25000000  0.00000000  0.8
  F-  F7  1  0.75000000  0.25000000  0.00000000  0.2
  O2-  O8  1  0.25000000  0.75000000  0.00000000  0.8
  F-  F9  1  0.25000000  0.75000000  0.00000000  0.2
