# generated using pymatgen
data_Nd2Fe2As2O1.7
_symmetry_space_group_name_H-M   'P 1'
_cell_length_a   3.90980000
_cell_length_b   3.90980000
_cell_length_c   8.12600000
_cell_angle_alpha   90.00000000
_cell_angle_beta   90.00000000
_cell_angle_gamma   90.00000000
_symmetry_Int_Tables_number   1
_chemical_formula_structural   Nd2Fe2As2O1.7
_chemical_formula_sum   'Nd2 Fe2 As2 O1.7'
_cell_volume   124.21839186
_cell_formula_units_Z   1
loop_
 _symmetry_equiv_pos_site_id
 _symmetry_equiv_pos_as_xyz
  1  'x, y, z'
loop_
 _atom_type_symbol
 _atom_type_oxidation_number
  Nd3+  3.0
  Fe1.7+  1.7
  As3-  -3.0
  O2-  -2.0
loop_
 _atom_site_type_symbol
 _atom_site_label
 _atom_site_symmetry_multiplicity
 _atom_site_fract_x
 _atom_site_fract_y
 _atom_site_fract_z
 _atom_site_occupancy
  Nd3+  Nd0  1  0.75000000  0.75000000  0.85010000  1.0
  Nd3+  Nd1  1  0.25000000  0.25000000  0.14990000  1.0
  Fe1.7+  Fe2  1  0.75000000  0.25000000  0.50000000  1.0
  Fe1.7+  Fe3  1  0.25000000  0.75000000  0.50000000  1.0
  As3-  As4  1  0.75000000  0.75000000  0.33660000  1.0
  As3-  As5  1  0.25000000  0.25000000  0.66340000  1.0
  O2-  O6  1  0.75000000  0.25000000  0.00000000  0.85
  O2-  O7  1  0.25000000  0.75000000  0.00000000  0.85
