# generated using pymatgen
data_Fe2.04Te1.6Se0.4
_symmetry_space_group_name_H-M   'P 1'
_cell_length_a   3.80890000
_cell_length_b   3.80890000
_cell_length_c   6.13160000
_cell_angle_alpha   90.00000000
_cell_angle_beta   90.00000000
_cell_angle_gamma   90.00000000
_symmetry_Int_Tables_number   1
_chemical_formula_structural   Fe2.04Te1.6Se0.4
_chemical_formula_sum   'Fe2.04 Te1.6 Se0.4'
_cell_volume   88.95553111
_cell_formula_units_Z   1
loop_
 _symmetry_equiv_pos_site_id
 _symmetry_equiv_pos_as_xyz
  1  'x, y, z'
loop_
 _atom_type_symbol
 _atom_type_oxidation_number
  Fe1.96+  1.96
  Te2-  -2.0
  Se2-  -2.0
loop_
 _atom_site_type_symbol
 _atom_site_label
 _atom_site_symmetry_multiplicity
 _atom_site_fract_x
 _atom_site_fract_y
 _atom_site_fract_z
 _atom_site_occupancy
  Fe1.96+  Fe0  1  0.75000000  0.25000000  0.00000000  1.0
  Fe1.96+  Fe1  1  0.25000000  0.75000000  0.00000000  1.0
  Fe1.96+  Fe2  1  0.75000000  0.75000000  0.29300000  0.02
  Fe1.96+  Fe3  1  0.25000000  0.25000000  0.70700000  0.02
  Te2-  Te4  1  0.75000000  0.75000000  0.72870000  0.8
  Se2-  Se5  1  0.75000000  0.75000000  0.72870000  0.2
  Te2-  Te6  1  0.25000000  0.25000000  0.27130000  0.8
  Se2-  Se7  1  0.25000000  0.25000000  0.27130000  0.2
