# generated using pymatgen
data_Tl1.8W6O18
_symmetry_space_group_name_H-M   'P 1'
_cell_length_a   7.38100000
_cell_length_b   7.38100000
_cell_length_c   7.50910000
_cell_angle_alpha   90.00000000
_cell_angle_beta   90.00000000
_cell_angle_gamma   120.00000000
_symmetry_Int_Tables_number   1
_chemical_formula_structural   Tl1.8W6O18
_chemical_formula_sum   'Tl1.8 W6 O18'
_cell_volume   354.28187159
_cell_formula_units_Z   1
loop_
 _symmetry_equiv_pos_site_id
 _symmetry_equiv_pos_as_xyz
  1  'x, y, z'
loop_
 _atom_type_symbol
 _atom_type_oxidation_number
  Tl+  1.0
  W5.7+  5.7
  O2-  -2.0
loop_
 _atom_site_type_symbol
 _atom_site_label
 _atom_site_symmetry_multiplicity
 _atom_site_fract_x
 _atom_site_fract_y
 _atom_site_fract_z
 _atom_site_occupancy
  Tl+  Tl0  1  0.00000000  0.00000000  0.46930000  0.45
  Tl+  Tl1  1  0.00000000  0.00000000  0.53070000  0.45
  Tl+  Tl2  1  0.00000000  0.00000000  0.96930000  0.45
  Tl+  Tl3  1  0.00000000  0.00000000  0.03070000  0.45
  W5.7+  W4  1  0.00000000  0.47744000  0.25000000  1.0
  W5.7+  W5  1  0.52256000  0.52256000  0.25000000  1.0
  W5.7+  W6  1  0.47744000  0.00000000  0.25000000  1.0
  W5.7+  W7  1  0.00000000  0.52256000  0.75000000  1.0
  W5.7+  W8  1  0.47744000  0.47744000  0.75000000  1.0
  W5.7+  W9  1  0.52256000  0.00000000  0.75000000  1.0
  O2-  O10  1  0.78820000  0.20820000  0.25000000  1.0
  O2-  O11  1  0.79180000  0.58000000  0.25000000  1.0
  O2-  O12  1  0.42000000  0.21180000  0.25000000  1.0
  O2-  O13  1  0.20820000  0.78820000  0.25000000  1.0
  O2-  O14  1  0.58000000  0.79180000  0.25000000  1.0
  O2-  O15  1  0.21180000  0.42000000  0.25000000  1.0
  O2-  O16  1  0.21180000  0.79180000  0.75000000  1.0
  O2-  O17  1  0.20820000  0.42000000  0.75000000  1.0
  O2-  O18  1  0.58000000  0.78820000  0.75000000  1.0
  O2-  O19  1  0.79180000  0.21180000  0.75000000  1.0
  O2-  O20  1  0.42000000  0.20820000  0.75000000  1.0
  O2-  O21  1  0.78820000  0.58000000  0.75000000  1.0
  O2-  O22  1  0.00000000  0.46350000  0.50200000  0.5
  O2-  O23  1  0.53650000  0.53650000  0.50200000  0.5
  O2-  O24  1  0.46350000  0.00000000  0.50200000  0.5
  O2-  O25  1  0.00000000  0.53650000  0.49800000  0.5
  O2-  O26  1  0.46350000  0.46350000  0.49800000  0.5
  O2-  O27  1  0.53650000  0.00000000  0.49800000  0.5
  O2-  O28  1  0.00000000  0.53650000  0.00200000  0.5
  O2-  O29  1  0.46350000  0.46350000  0.00200000  0.5
  O2-  O30  1  0.53650000  0.00000000  0.00200000  0.5
  O2-  O31  1  0.00000000  0.46350000  0.99800000  0.5
  O2-  O32  1  0.53650000  0.53650000  0.99800000  0.5
  O2-  O33  1  0.46350000  0.00000000  0.99800000  0.5
