# generated using pymatgen
data_Sr4MgTiFe2(AsO3)2
_symmetry_space_group_name_H-M   'P 1'
_cell_length_a   3.93500000
_cell_length_b   3.93500000
_cell_length_c   15.95000000
_cell_angle_alpha   90.00000000
_cell_angle_beta   90.00000000
_cell_angle_gamma   90.00000000
_symmetry_Int_Tables_number   1
_chemical_formula_structural   Sr4MgTiFe2(AsO3)2
_chemical_formula_sum   'Sr4 Mg1 Ti1 Fe2 As2 O6'
_cell_volume   246.97338875
_cell_formula_units_Z   1
loop_
 _symmetry_equiv_pos_site_id
 _symmetry_equiv_pos_as_xyz
  1  'x, y, z'
loop_
 _atom_type_symbol
 _atom_type_oxidation_number
  Sr2+  2.0
  Mg2+  2.0
  Ti4+  4.0
  Fe2+  2.0
  As3-  -3.0
  O2-  -2.0
loop_
 _atom_site_type_symbol
 _atom_site_label
 _atom_site_symmetry_multiplicity
 _atom_site_fract_x
 _atom_site_fract_y
 _atom_site_fract_z
 _atom_site_occupancy
  Sr2+  Sr0  1  0.25000000  0.25000000  0.81000000  1.0
  Sr2+  Sr1  1  0.75000000  0.75000000  0.19000000  1.0
  Sr2+  Sr2  1  0.25000000  0.25000000  0.58670000  1.0
  Sr2+  Sr3  1  0.75000000  0.75000000  0.41330000  1.0
  Mg2+  Mg4  1  0.75000000  0.75000000  0.69140000  0.5
  Ti4+  Ti5  1  0.75000000  0.75000000  0.69140000  0.5
  Mg2+  Mg6  1  0.25000000  0.25000000  0.30860000  0.5
  Ti4+  Ti7  1  0.25000000  0.25000000  0.30860000  0.5
  Fe2+  Fe8  1  0.25000000  0.75000000  0.00000000  1.0
  Fe2+  Fe9  1  0.75000000  0.25000000  0.00000000  1.0
  As3-  As10  1  0.75000000  0.75000000  0.91360000  1.0
  As3-  As11  1  0.25000000  0.25000000  0.08640000  1.0
  O2-  O12  1  0.25000000  0.75000000  0.70890000  1.0
  O2-  O13  1  0.75000000  0.25000000  0.70890000  1.0
  O2-  O14  1  0.75000000  0.25000000  0.29110000  1.0
  O2-  O15  1  0.25000000  0.75000000  0.29110000  1.0
  O2-  O16  1  0.75000000  0.75000000  0.57250000  1.0
  O2-  O17  1  0.25000000  0.25000000  0.42750000  1.0
