# generated using pymatgen
data_Ce2Fe1.8Co0.2As2O2
_symmetry_space_group_name_H-M   'P 1'
_cell_length_a   3.97110000
_cell_length_b   3.97110000
_cell_length_c   8.46400000
_cell_angle_alpha   90.00000000
_cell_angle_beta   90.00000000
_cell_angle_gamma   90.00000000
_symmetry_Int_Tables_number   1
_chemical_formula_structural   Ce2Fe1.8Co0.2As2O2
_chemical_formula_sum   'Ce2 Fe1.8 Co0.2 As2 O2'
_cell_volume   133.47419242
_cell_formula_units_Z   1
loop_
 _symmetry_equiv_pos_site_id
 _symmetry_equiv_pos_as_xyz
  1  'x, y, z'
loop_
 _atom_type_symbol
 _atom_type_oxidation_number
  Ce3+  3.0
  Fe2+  2.0
  Co2+  2.0
  As3-  -3.0
  O2-  -2.0
loop_
 _atom_site_type_symbol
 _atom_site_label
 _atom_site_symmetry_multiplicity
 _atom_site_fract_x
 _atom_site_fract_y
 _atom_site_fract_z
 _atom_site_occupancy
  Ce3+  Ce0  1  0.75000000  0.75000000  0.86210000  1.0
  Ce3+  Ce1  1  0.25000000  0.25000000  0.13790000  1.0
  Fe2+  Fe2  1  0.75000000  0.25000000  0.50000000  0.9
  Co2+  Co3  1  0.75000000  0.25000000  0.50000000  0.1
  Fe2+  Fe4  1  0.25000000  0.75000000  0.50000000  0.9
  Co2+  Co5  1  0.25000000  0.75000000  0.50000000  0.1
  As3-  As6  1  0.75000000  0.75000000  0.33420000  1.0
  As3-  As7  1  0.25000000  0.25000000  0.66580000  1.0
  O2-  O8  1  0.75000000  0.25000000  0.00000000  1.0
  O2-  O9  1  0.25000000  0.75000000  0.00000000  1.0
