# generated using pymatgen
data_Fe2Te1.8S0.2
_symmetry_space_group_name_H-M   'P 1'
_cell_length_a   3.81100000
_cell_length_b   3.81100000
_cell_length_c   6.23900000
_cell_angle_alpha   90.00000000
_cell_angle_beta   90.00000000
_cell_angle_gamma   90.00000000
_symmetry_Int_Tables_number   1
_chemical_formula_structural   Fe2Te1.8S0.2
_chemical_formula_sum   'Fe2 Te1.8 S0.2'
_cell_volume   90.61349532
_cell_formula_units_Z   1
loop_
 _symmetry_equiv_pos_site_id
 _symmetry_equiv_pos_as_xyz
  1  'x, y, z'
loop_
 _atom_type_symbol
 _atom_type_oxidation_number
  Fe2+  2.0
  Te2-  -2.0
  S2-  -2.0
loop_
 _atom_site_type_symbol
 _atom_site_label
 _atom_site_symmetry_multiplicity
 _atom_site_fract_x
 _atom_site_fract_y
 _atom_site_fract_z
 _atom_site_occupancy
  Fe2+  Fe0  1  0.75000000  0.25000000  0.00000000  1.0
  Fe2+  Fe1  1  0.25000000  0.75000000  0.00000000  1.0
  Te2-  Te2  1  0.75000000  0.75000000  0.71620000  0.9
  S2-  S3  1  0.75000000  0.75000000  0.71620000  0.1
  Te2-  Te4  1  0.25000000  0.25000000  0.28380000  0.9
  S2-  S5  1  0.25000000  0.25000000  0.28380000  0.1
