# generated using pymatgen
data_Re6Hg2.64O18
_symmetry_space_group_name_H-M   'P 1'
_cell_length_a   7.36600000
_cell_length_b   7.36600000
_cell_length_c   7.50600000
_cell_angle_alpha   90.00000000
_cell_angle_beta   90.00000000
_cell_angle_gamma   120.00000000
_symmetry_Int_Tables_number   1
_chemical_formula_structural   Re6Hg2.64O18
_chemical_formula_sum   'Re6 Hg2.64 O18'
_cell_volume   352.69769451
_cell_formula_units_Z   1
loop_
 _symmetry_equiv_pos_site_id
 _symmetry_equiv_pos_as_xyz
  1  'x, y, z'
loop_
 _atom_type_symbol
 _atom_type_oxidation_number
  Re5.56+  5.56
  Hg+  1.0
  O2-  -2.0
loop_
 _atom_site_type_symbol
 _atom_site_label
 _atom_site_symmetry_multiplicity
 _atom_site_fract_x
 _atom_site_fract_y
 _atom_site_fract_z
 _atom_site_occupancy
  Re5.56+  Re0  1  0.50100000  0.50100000  0.25000000  1.0
  Re5.56+  Re1  1  0.49900000  0.00000000  0.25000000  1.0
  Re5.56+  Re2  1  0.00000000  0.49900000  0.25000000  1.0
  Re5.56+  Re3  1  0.49900000  0.49900000  0.75000000  1.0
  Re5.56+  Re4  1  0.50100000  0.00000000  0.75000000  1.0
  Re5.56+  Re5  1  0.00000000  0.50100000  0.75000000  1.0
  Hg+  Hg6  1  0.00000000  0.00000000  0.36900000  0.66
  Hg+  Hg7  1  0.00000000  0.00000000  0.63100000  0.66
  Hg+  Hg8  1  0.00000000  0.00000000  0.86900000  0.66
  Hg+  Hg9  1  0.00000000  0.00000000  0.13100000  0.66
  O2-  O10  1  0.59200000  0.79600000  0.25000000  1.0
  O2-  O11  1  0.20400000  0.79600000  0.25000000  1.0
  O2-  O12  1  0.20400000  0.40800000  0.25000000  1.0
  O2-  O13  1  0.79600000  0.59200000  0.25000000  1.0
  O2-  O14  1  0.79600000  0.20400000  0.25000000  1.0
  O2-  O15  1  0.40800000  0.20400000  0.25000000  1.0
  O2-  O16  1  0.40800000  0.20400000  0.75000000  1.0
  O2-  O17  1  0.79600000  0.20400000  0.75000000  1.0
  O2-  O18  1  0.79600000  0.59200000  0.75000000  1.0
  O2-  O19  1  0.20400000  0.40800000  0.75000000  1.0
  O2-  O20  1  0.20400000  0.79600000  0.75000000  1.0
  O2-  O21  1  0.59200000  0.79600000  0.75000000  1.0
  O2-  O22  1  0.50000000  0.50000000  0.50000000  1.0
  O2-  O23  1  0.50000000  0.00000000  0.50000000  1.0
  O2-  O24  1  0.00000000  0.50000000  0.50000000  1.0
  O2-  O25  1  0.50000000  0.50000000  0.00000000  1.0
  O2-  O26  1  0.50000000  0.00000000  0.00000000  1.0
  O2-  O27  1  0.00000000  0.50000000  0.00000000  1.0
