# generated using pymatgen
data_BaSrErCu3O7
_symmetry_space_group_name_H-M   'P 1'
_cell_length_a   3.81410000
_cell_length_b   3.85750000
_cell_length_c   11.58230000
_cell_angle_alpha   90.00000000
_cell_angle_beta   90.00000000
_cell_angle_gamma   90.00000000
_symmetry_Int_Tables_number   1
_chemical_formula_structural   BaSrErCu3O7
_chemical_formula_sum   'Ba1 Sr1 Er1 Cu3 O7'
_cell_volume   170.40911453
_cell_formula_units_Z   1
loop_
 _symmetry_equiv_pos_site_id
 _symmetry_equiv_pos_as_xyz
  1  'x, y, z'
loop_
 _atom_type_symbol
 _atom_type_oxidation_number
  Ba2+  2.0
  Sr2+  2.0
  Er3+  3.0
  Cu2.29+  2.29
  O2-  -2.0
loop_
 _atom_site_type_symbol
 _atom_site_label
 _atom_site_symmetry_multiplicity
 _atom_site_fract_x
 _atom_site_fract_y
 _atom_site_fract_z
 _atom_site_occupancy
  Ba2+  Ba0  1  0.50000000  0.50000000  0.18700000  0.5
  Sr2+  Sr1  1  0.50000000  0.50000000  0.18700000  0.5
  Ba2+  Ba2  1  0.50000000  0.50000000  0.81300000  0.5
  Sr2+  Sr3  1  0.50000000  0.50000000  0.81300000  0.5
  Er3+  Er4  1  0.50000000  0.50000000  0.50000000  1.0
  Cu2.29+  Cu5  1  0.00000000  0.00000000  0.00000000  1.0
  Cu2.29+  Cu6  1  0.00000000  0.00000000  0.35740000  1.0
  Cu2.29+  Cu7  1  0.00000000  0.00000000  0.64260000  1.0
  O2-  O8  1  0.00000000  0.00000000  0.16170000  1.0
  O2-  O9  1  0.00000000  0.00000000  0.83830000  1.0
  O2-  O10  1  0.50000000  0.00000000  0.38260000  1.0
  O2-  O11  1  0.50000000  0.00000000  0.61740000  1.0
  O2-  O12  1  0.00000000  0.50000000  0.38840000  1.0
  O2-  O13  1  0.00000000  0.50000000  0.61160000  1.0
  O2-  O14  1  0.00000000  0.50000000  0.00000000  1.0
