# generated using pymatgen
data_Ba4Bi1.2Pb2.8O12
_symmetry_space_group_name_H-M   'P 1'
_cell_length_a   6.05557000
_cell_length_b   6.05557000
_cell_length_c   8.63106000
_cell_angle_alpha   90.00000000
_cell_angle_beta   90.00000000
_cell_angle_gamma   90.00000000
_symmetry_Int_Tables_number   1
_chemical_formula_structural   Ba4Bi1.2Pb2.8O12
_chemical_formula_sum   'Ba4 Bi1.2 Pb2.8 O12'
_cell_volume   316.50034898
_cell_formula_units_Z   1
loop_
 _symmetry_equiv_pos_site_id
 _symmetry_equiv_pos_as_xyz
  1  'x, y, z'
loop_
 _atom_type_symbol
 _atom_type_oxidation_number
  Ba2+  2.0
  Bi4+  4.0
  Pb4+  4.0
  O2-  -2.0
loop_
 _atom_site_type_symbol
 _atom_site_label
 _atom_site_symmetry_multiplicity
 _atom_site_fract_x
 _atom_site_fract_y
 _atom_site_fract_z
 _atom_site_occupancy
  Ba2+  Ba0  1  0.50000000  0.00000000  0.25000000  1.0
  Ba2+  Ba1  1  0.50000000  0.00000000  0.75000000  1.0
  Ba2+  Ba2  1  0.00000000  0.50000000  0.25000000  1.0
  Ba2+  Ba3  1  0.00000000  0.50000000  0.75000000  1.0
  Bi4+  Bi4  1  0.00000000  0.00000000  0.50000000  0.3
  Pb4+  Pb5  1  0.00000000  0.00000000  0.50000000  0.7
  Bi4+  Bi6  1  0.00000000  0.00000000  0.00000000  0.3
  Pb4+  Pb7  1  0.00000000  0.00000000  0.00000000  0.7
  Bi4+  Bi8  1  0.50000000  0.50000000  0.00000000  0.3
  Pb4+  Pb9  1  0.50000000  0.50000000  0.00000000  0.7
  Bi4+  Bi10  1  0.50000000  0.50000000  0.50000000  0.3
  Pb4+  Pb11  1  0.50000000  0.50000000  0.50000000  0.7
  O2-  O12  1  0.00000000  0.00000000  0.25000000  1.0
  O2-  O13  1  0.00000000  0.00000000  0.75000000  1.0
  O2-  O14  1  0.50000000  0.50000000  0.75000000  1.0
  O2-  O15  1  0.50000000  0.50000000  0.25000000  1.0
  O2-  O16  1  0.78660000  0.28660000  0.50000000  1.0
  O2-  O17  1  0.21340000  0.71340000  0.50000000  1.0
  O2-  O18  1  0.21340000  0.28660000  0.00000000  1.0
  O2-  O19  1  0.78660000  0.71340000  0.00000000  1.0
  O2-  O20  1  0.28660000  0.21340000  0.50000000  1.0
  O2-  O21  1  0.71340000  0.78660000  0.50000000  1.0
  O2-  O22  1  0.28660000  0.78660000  0.00000000  1.0
  O2-  O23  1  0.71340000  0.21340000  0.00000000  1.0
