# generated using pymatgen
data_Sr4Ce1.2Gd2.8Cu4Ru2O20
_symmetry_space_group_name_H-M   'P 1'
_cell_length_a   3.84310000
_cell_length_b   3.84310000
_cell_length_c   28.58700000
_cell_angle_alpha   90.00000000
_cell_angle_beta   90.00000000
_cell_angle_gamma   90.00000000
_symmetry_Int_Tables_number   1
_chemical_formula_structural   Sr4Ce1.2Gd2.8Cu4Ru2O20
_chemical_formula_sum   'Sr4 Ce1.2 Gd2.8 Cu4 Ru2 O20'
_cell_volume   422.21334122
_cell_formula_units_Z   1
loop_
 _symmetry_equiv_pos_site_id
 _symmetry_equiv_pos_as_xyz
  1  'x, y, z'
loop_
 _atom_type_symbol
 _atom_type_oxidation_number
  Sr2+  2.0
  Ce3+  3.0
  Gd3+  3.0
  Cu2.5+  2.5
  Ru5+  5.0
  O2-  -2.0
loop_
 _atom_site_type_symbol
 _atom_site_label
 _atom_site_symmetry_multiplicity
 _atom_site_fract_x
 _atom_site_fract_y
 _atom_site_fract_z
 _atom_site_occupancy
  Sr2+  Sr0  1  0.00000000  0.00000000  0.57810000  1.0
  Sr2+  Sr1  1  0.00000000  0.00000000  0.42190000  1.0
  Sr2+  Sr2  1  0.50000000  0.50000000  0.07810000  1.0
  Sr2+  Sr3  1  0.50000000  0.50000000  0.92190000  1.0
  Ce3+  Ce4  1  0.00000000  0.00000000  0.70550000  0.3
  Gd3+  Gd5  1  0.00000000  0.00000000  0.70550000  0.7
  Ce3+  Ce6  1  0.00000000  0.00000000  0.29450000  0.3
  Gd3+  Gd7  1  0.00000000  0.00000000  0.29450000  0.7
  Ce3+  Ce8  1  0.50000000  0.50000000  0.20550000  0.3
  Gd3+  Gd9  1  0.50000000  0.50000000  0.20550000  0.7
  Ce3+  Ce10  1  0.50000000  0.50000000  0.79450000  0.3
  Gd3+  Gd11  1  0.50000000  0.50000000  0.79450000  0.7
  Cu2.5+  Cu12  1  0.00000000  0.00000000  0.85890000  1.0
  Cu2.5+  Cu13  1  0.00000000  0.00000000  0.14110000  1.0
  Cu2.5+  Cu14  1  0.50000000  0.50000000  0.35890000  1.0
  Cu2.5+  Cu15  1  0.50000000  0.50000000  0.64110000  1.0
  Ru5+  Ru16  1  0.00000000  0.00000000  0.00000000  1.0
  Ru5+  Ru17  1  0.50000000  0.50000000  0.50000000  1.0
  O2-  O18  1  0.00000000  0.00000000  0.93280000  1.0
  O2-  O19  1  0.00000000  0.00000000  0.06720000  1.0
  O2-  O20  1  0.50000000  0.50000000  0.43280000  1.0
  O2-  O21  1  0.50000000  0.50000000  0.56720000  1.0
  O2-  O22  1  0.50000000  0.00000000  0.85080000  1.0
  O2-  O23  1  0.00000000  0.50000000  0.85080000  1.0
  O2-  O24  1  0.50000000  0.00000000  0.14920000  1.0
  O2-  O25  1  0.00000000  0.50000000  0.14920000  1.0
  O2-  O26  1  0.00000000  0.50000000  0.35080000  1.0
  O2-  O27  1  0.50000000  0.00000000  0.35080000  1.0
  O2-  O28  1  0.00000000  0.50000000  0.64920000  1.0
  O2-  O29  1  0.50000000  0.00000000  0.64920000  1.0
  O2-  O30  1  0.50000000  0.00000000  0.75000000  1.0
  O2-  O31  1  0.00000000  0.50000000  0.75000000  1.0
  O2-  O32  1  0.50000000  0.00000000  0.25000000  1.0
  O2-  O33  1  0.00000000  0.50000000  0.25000000  1.0
  O2-  O34  1  0.11840000  0.50000000  0.00000000  0.5
  O2-  O35  1  0.88160000  0.50000000  0.00000000  0.5
  O2-  O36  1  0.50000000  0.11840000  0.00000000  0.5
  O2-  O37  1  0.50000000  0.88160000  0.00000000  0.5
  O2-  O38  1  0.61840000  0.00000000  0.50000000  0.5
  O2-  O39  1  0.38160000  0.00000000  0.50000000  0.5
  O2-  O40  1  0.00000000  0.61840000  0.50000000  0.5
  O2-  O41  1  0.00000000  0.38160000  0.50000000  0.5
