# generated using pymatgen
data_La2Fe2As2O1.8F0.2
_symmetry_space_group_name_H-M   'P 1'
_cell_length_a   4.02400000
_cell_length_b   4.02400000
_cell_length_c   8.70600000
_cell_angle_alpha   90.00000000
_cell_angle_beta   90.00000000
_cell_angle_gamma   90.00000000
_symmetry_Int_Tables_number   1
_chemical_formula_structural   La2Fe2As2O1.8F0.2
_chemical_formula_sum   'La2 Fe2 As2 O1.8 F0.2'
_cell_volume   140.97256666
_cell_formula_units_Z   1
loop_
 _symmetry_equiv_pos_site_id
 _symmetry_equiv_pos_as_xyz
  1  'x, y, z'
loop_
 _atom_type_symbol
 _atom_type_oxidation_number
  La3+  3.0
  Fe1.9+  1.9
  As3-  -3.0
  O2-  -2.0
  F-  -1.0
loop_
 _atom_site_type_symbol
 _atom_site_label
 _atom_site_symmetry_multiplicity
 _atom_site_fract_x
 _atom_site_fract_y
 _atom_site_fract_z
 _atom_site_occupancy
  La3+  La0  1  0.75000000  0.75000000  0.84700000  1.0
  La3+  La1  1  0.25000000  0.25000000  0.15300000  1.0
  Fe1.9+  Fe2  1  0.75000000  0.25000000  0.50000000  1.0
  Fe1.9+  Fe3  1  0.25000000  0.75000000  0.50000000  1.0
  As3-  As4  1  0.75000000  0.75000000  0.35340000  1.0
  As3-  As5  1  0.25000000  0.25000000  0.64660000  1.0
  O2-  O6  1  0.75000000  0.25000000  0.00000000  0.9
  F-  F7  1  0.75000000  0.25000000  0.00000000  0.1
  O2-  O8  1  0.25000000  0.75000000  0.00000000  0.9
  F-  F9  1  0.25000000  0.75000000  0.00000000  0.1
