# generated using pymatgen
data_Sr0.54La3.46Ti0.12Cu1.88O8
_symmetry_space_group_name_H-M   'P 1'
_cell_length_a   3.77840000
_cell_length_b   3.77840000
_cell_length_c   13.20800000
_cell_angle_alpha   90.00000000
_cell_angle_beta   90.00000000
_cell_angle_gamma   90.00000000
_symmetry_Int_Tables_number   1
_chemical_formula_structural   Sr0.54La3.46Ti0.12Cu1.88O8
_chemical_formula_sum   'Sr0.54 La3.46 Ti0.12 Cu1.88 O8'
_cell_volume   188.56145704
_cell_formula_units_Z   1
loop_
 _symmetry_equiv_pos_site_id
 _symmetry_equiv_pos_as_xyz
  1  'x, y, z'
loop_
 _atom_type_symbol
 _atom_type_oxidation_number
  Sr2+  2.0
  La3+  3.0
  Ti4+  4.0
  Cu2.16+  2.16
  O2-  -2.0
loop_
 _atom_site_type_symbol
 _atom_site_label
 _atom_site_symmetry_multiplicity
 _atom_site_fract_x
 _atom_site_fract_y
 _atom_site_fract_z
 _atom_site_occupancy
  Sr2+  Sr0  1  0.00000000  0.00000000  0.63900000  0.135
  La3+  La1  1  0.00000000  0.00000000  0.63900000  0.865
  Sr2+  Sr2  1  0.00000000  0.00000000  0.36100000  0.135
  La3+  La3  1  0.00000000  0.00000000  0.36100000  0.865
  Sr2+  Sr4  1  0.50000000  0.50000000  0.13900000  0.135
  La3+  La5  1  0.50000000  0.50000000  0.13900000  0.865
  Sr2+  Sr6  1  0.50000000  0.50000000  0.86100000  0.135
  La3+  La7  1  0.50000000  0.50000000  0.86100000  0.865
  Ti4+  Ti8  1  0.00000000  0.00000000  0.00000000  0.06
  Cu2.16+  Cu9  1  0.00000000  0.00000000  0.00000000  0.94
  Ti4+  Ti10  1  0.50000000  0.50000000  0.50000000  0.06
  Cu2.16+  Cu11  1  0.50000000  0.50000000  0.50000000  0.94
  O2-  O12  1  0.50000000  0.00000000  0.00000000  1.0
  O2-  O13  1  0.00000000  0.50000000  0.00000000  1.0
  O2-  O14  1  0.00000000  0.50000000  0.50000000  1.0
  O2-  O15  1  0.50000000  0.00000000  0.50000000  1.0
  O2-  O16  1  0.00000000  0.00000000  0.81800000  1.0
  O2-  O17  1  0.00000000  0.00000000  0.18200000  1.0
  O2-  O18  1  0.50000000  0.50000000  0.31800000  1.0
  O2-  O19  1  0.50000000  0.50000000  0.68200000  1.0
