# generated using pymatgen
data_La2Fe2As2O1.9F0.1
_symmetry_space_group_name_H-M   'P 1'
_cell_length_a   4.02800000
_cell_length_b   4.02800000
_cell_length_c   8.72300000
_cell_angle_alpha   90.00000000
_cell_angle_beta   90.00000000
_cell_angle_gamma   90.00000000
_symmetry_Int_Tables_number   1
_chemical_formula_structural   La2Fe2As2O1.9F0.1
_chemical_formula_sum   'La2 Fe2 As2 O1.9 F0.1'
_cell_volume   141.52879083
_cell_formula_units_Z   1
loop_
 _symmetry_equiv_pos_site_id
 _symmetry_equiv_pos_as_xyz
  1  'x, y, z'
loop_
 _atom_type_symbol
 _atom_type_oxidation_number
  La3+  3.0
  Fe1.95+  1.95
  As3-  -3.0
  O2-  -2.0
  F-  -1.0
loop_
 _atom_site_type_symbol
 _atom_site_label
 _atom_site_symmetry_multiplicity
 _atom_site_fract_x
 _atom_site_fract_y
 _atom_site_fract_z
 _atom_site_occupancy
  La3+  La0  1  0.75000000  0.75000000  0.84800000  1.0
  La3+  La1  1  0.25000000  0.25000000  0.15200000  1.0
  Fe1.95+  Fe2  1  0.75000000  0.25000000  0.50000000  1.0
  Fe1.95+  Fe3  1  0.25000000  0.75000000  0.50000000  1.0
  As3-  As4  1  0.75000000  0.75000000  0.35650000  1.0
  As3-  As5  1  0.25000000  0.25000000  0.64350000  1.0
  O2-  O6  1  0.75000000  0.25000000  0.00000000  0.95
  F-  F7  1  0.75000000  0.25000000  0.00000000  0.05
  O2-  O8  1  0.25000000  0.75000000  0.00000000  0.95
  F-  F9  1  0.25000000  0.75000000  0.00000000  0.05
