# generated using pymatgen
data_Sr8Ca1Tm3Ga4Cu8O27.88
_symmetry_space_group_name_H-M   'P 1'
_cell_length_a   22.85340000
_cell_length_b   5.47750000
_cell_length_c   5.39020000
_cell_angle_alpha   90.00000000
_cell_angle_beta   90.00000000
_cell_angle_gamma   90.00000000
_symmetry_Int_Tables_number   1
_chemical_formula_structural   Sr8Ca1Tm3Ga4Cu8O27.88
_chemical_formula_sum   'Sr8 Ca1 Tm3 Ga4 Cu8 O27.88'
_cell_volume   674.74253281
_cell_formula_units_Z   1
loop_
 _symmetry_equiv_pos_site_id
 _symmetry_equiv_pos_as_xyz
  1  'x, y, z'
loop_
 _atom_type_symbol
 _atom_type_oxidation_number
  Sr2+  2.0
  Ca2+  2.0
  Tm3+  3.0
  Ga3+  3.0
  Cu2.1+  2.1
  O2-  -2.0
loop_
 _atom_site_type_symbol
 _atom_site_label
 _atom_site_symmetry_multiplicity
 _atom_site_fract_x
 _atom_site_fract_y
 _atom_site_fract_z
 _atom_site_occupancy
  Sr2+  Sr0  1  0.85030000  0.98510000  0.01180000  1.0
  Sr2+  Sr1  1  0.14970000  0.01490000  0.01180000  1.0
  Sr2+  Sr2  1  0.64970000  0.98510000  0.01180000  1.0
  Sr2+  Sr3  1  0.35030000  0.01490000  0.01180000  1.0
  Sr2+  Sr4  1  0.35030000  0.48510000  0.51180000  1.0
  Sr2+  Sr5  1  0.64970000  0.51490000  0.51180000  1.0
  Sr2+  Sr6  1  0.14970000  0.48510000  0.51180000  1.0
  Sr2+  Sr7  1  0.85030000  0.51490000  0.51180000  1.0
  Ca2+  Ca8  1  0.50000000  0.00000000  0.00000000  0.25
  Tm3+  Tm9  1  0.50000000  0.00000000  0.00000000  0.75
  Ca2+  Ca10  1  0.00000000  0.00000000  0.00000000  0.25
  Tm3+  Tm11  1  0.00000000  0.00000000  0.00000000  0.75
  Ca2+  Ca12  1  0.00000000  0.50000000  0.50000000  0.25
  Tm3+  Tm13  1  0.00000000  0.50000000  0.50000000  0.75
  Ca2+  Ca14  1  0.50000000  0.50000000  0.50000000  0.25
  Tm3+  Tm15  1  0.50000000  0.50000000  0.50000000  0.75
  Ga3+  Ga16  1  0.75000000  0.42770000  0.95860000  1.0
  Ga3+  Ga17  1  0.25000000  0.57230000  0.95860000  1.0
  Ga3+  Ga18  1  0.25000000  0.92770000  0.45860000  1.0
  Ga3+  Ga19  1  0.75000000  0.07230000  0.45860000  1.0
  Cu2.1+  Cu20  1  0.92790000  0.00040000  0.50110000  1.0
  Cu2.1+  Cu21  1  0.07210000  0.99960000  0.50110000  1.0
  Cu2.1+  Cu22  1  0.57210000  0.00040000  0.50110000  1.0
  Cu2.1+  Cu23  1  0.42790000  0.99960000  0.50110000  1.0
  Cu2.1+  Cu24  1  0.42790000  0.50040000  0.00110000  1.0
  Cu2.1+  Cu25  1  0.57210000  0.49960000  0.00110000  1.0
  Cu2.1+  Cu26  1  0.07210000  0.50040000  0.00110000  1.0
  Cu2.1+  Cu27  1  0.92790000  0.49960000  0.00110000  1.0
  O2-  O28  1  0.82310000  0.54060000  0.01620000  1.0
  O2-  O29  1  0.17690000  0.45940000  0.01620000  1.0
  O2-  O30  1  0.67690000  0.54060000  0.01620000  1.0
  O2-  O31  1  0.32310000  0.45940000  0.01620000  1.0
  O2-  O32  1  0.32310000  0.04060000  0.51620000  1.0
  O2-  O33  1  0.67690000  0.95940000  0.51620000  1.0
  O2-  O34  1  0.17690000  0.04060000  0.51620000  1.0
  O2-  O35  1  0.82310000  0.95940000  0.51620000  1.0
  O2-  O36  1  0.93370000  0.23880000  0.25060000  1.0
  O2-  O37  1  0.06630000  0.76120000  0.25060000  1.0
  O2-  O38  1  0.56630000  0.23880000  0.25060000  1.0
  O2-  O39  1  0.43370000  0.76120000  0.25060000  1.0
  O2-  O40  1  0.43370000  0.73880000  0.75060000  1.0
  O2-  O41  1  0.56630000  0.26120000  0.75060000  1.0
  O2-  O42  1  0.06630000  0.73880000  0.75060000  1.0
  O2-  O43  1  0.93370000  0.26120000  0.75060000  1.0
  O2-  O44  1  0.93740000  0.74380000  0.75510000  1.0
  O2-  O45  1  0.06260000  0.25620000  0.75510000  1.0
  O2-  O46  1  0.56260000  0.74380000  0.75510000  1.0
  O2-  O47  1  0.43740000  0.25620000  0.75510000  1.0
  O2-  O48  1  0.43740000  0.24380000  0.25510000  1.0
  O2-  O49  1  0.56260000  0.75620000  0.25510000  1.0
  O2-  O50  1  0.06260000  0.24380000  0.25510000  1.0
  O2-  O51  1  0.93740000  0.75620000  0.25510000  1.0
  O2-  O52  1  0.75000000  0.38380000  0.41320000  0.36
  O2-  O53  1  0.25000000  0.61620000  0.41320000  0.36
  O2-  O54  1  0.25000000  0.88380000  0.91320000  0.36
  O2-  O55  1  0.75000000  0.11620000  0.91320000  0.36
  O2-  O56  1  0.75000000  0.37690000  0.60630000  0.61
  O2-  O57  1  0.25000000  0.62310000  0.60630000  0.61
  O2-  O58  1  0.25000000  0.87690000  0.10630000  0.61
  O2-  O59  1  0.75000000  0.12310000  0.10630000  0.61
