# generated using pymatgen
data_Fe2.06Te1Se1
_symmetry_space_group_name_H-M   'P 1'
_cell_length_a   3.79151000
_cell_length_b   3.79151000
_cell_length_c   5.93898000
_cell_angle_alpha   90.00000000
_cell_angle_beta   90.00000000
_cell_angle_gamma   90.00000000
_symmetry_Int_Tables_number   1
_chemical_formula_structural   Fe2.06Te1Se1
_chemical_formula_sum   'Fe2.06 Te1 Se1'
_cell_volume   85.37609254
_cell_formula_units_Z   1
loop_
 _symmetry_equiv_pos_site_id
 _symmetry_equiv_pos_as_xyz
  1  'x, y, z'
loop_
 _atom_type_symbol
 _atom_type_oxidation_number
  Fe1.95+  1.95
  Te2-  -2.0
  Se2-  -2.0
loop_
 _atom_site_type_symbol
 _atom_site_label
 _atom_site_symmetry_multiplicity
 _atom_site_fract_x
 _atom_site_fract_y
 _atom_site_fract_z
 _atom_site_occupancy
  Fe1.95+  Fe0  1  0.75000000  0.25000000  0.00000000  1.0
  Fe1.95+  Fe1  1  0.25000000  0.75000000  0.00000000  1.0
  Fe1.95+  Fe2  1  0.75000000  0.75000000  0.19171800  0.03
  Fe1.95+  Fe3  1  0.25000000  0.25000000  0.80828200  0.03
  Te2-  Te4  1  0.75000000  0.75000000  0.73242700  0.5
  Se2-  Se5  1  0.75000000  0.75000000  0.73242700  0.5
  Te2-  Te6  1  0.25000000  0.25000000  0.26757300  0.5
  Se2-  Se7  1  0.25000000  0.25000000  0.26757300  0.5
