# generated using pymatgen
data_Ca10Fe8.2As18Pt5.8
_symmetry_space_group_name_H-M   'P 1'
_cell_length_a   8.71900000
_cell_length_b   8.72700000
_cell_length_c   11.16100000
_cell_angle_alpha   99.04000000
_cell_angle_beta   108.21000000
_cell_angle_gamma   90.00000000
_symmetry_Int_Tables_number   1
_chemical_formula_structural   Ca10Fe8.2As18Pt5.8
_chemical_formula_sum   'Ca10 Fe8.2 As18 Pt5.8'
_cell_volume   795.60365076
_cell_formula_units_Z   1
loop_
 _symmetry_equiv_pos_site_id
 _symmetry_equiv_pos_as_xyz
  1  'x, y, z'
loop_
 _atom_type_symbol
 _atom_type_oxidation_number
  Ca0+  0.0
  Fe0+  0.0
  As0+  0.0
  Pt0+  0.0
loop_
 _atom_site_type_symbol
 _atom_site_label
 _atom_site_symmetry_multiplicity
 _atom_site_fract_x
 _atom_site_fract_y
 _atom_site_fract_z
 _atom_site_occupancy
  Ca0+  Ca0  1  0.66200000  0.71820000  0.75960000  1.0
  Ca0+  Ca1  1  0.33800000  0.28180000  0.24040000  1.0
  Ca0+  Ca2  1  0.86500000  0.31320000  0.75960000  1.0
  Ca0+  Ca3  1  0.13500000  0.68680000  0.24040000  1.0
  Ca0+  Ca4  1  0.45800000  0.12150000  0.75960000  1.0
  Ca0+  Ca5  1  0.54200000  0.87850000  0.24040000  1.0
  Ca0+  Ca6  1  0.25600000  0.51500000  0.75960000  1.0
  Ca0+  Ca7  1  0.74400000  0.48500000  0.24040000  1.0
  Ca0+  Ca8  1  0.06500000  0.92060000  0.75960000  1.0
  Ca0+  Ca9  1  0.93500000  0.07940000  0.24040000  1.0
  Fe0+  Fe10  1  0.35500000  0.54700000  0.50000000  0.82
  Pt0+  Pt11  1  0.35500000  0.54700000  0.50000000  0.18
  Fe0+  Fe12  1  0.64500000  0.45300000  0.50000000  0.82
  Pt0+  Pt13  1  0.64500000  0.45300000  0.50000000  0.18
  Fe0+  Fe14  1  0.15400000  0.94700000  0.50000000  0.82
  Pt0+  Pt15  1  0.15400000  0.94700000  0.50000000  0.18
  Fe0+  Fe16  1  0.84600000  0.05300000  0.50000000  0.82
  Pt0+  Pt17  1  0.84600000  0.05300000  0.50000000  0.18
  Fe0+  Fe18  1  0.75400000  0.74700000  0.50000000  0.82
  Pt0+  Pt19  1  0.75400000  0.74700000  0.50000000  0.18
  Fe0+  Fe20  1  0.24600000  0.25300000  0.50000000  0.82
  Pt0+  Pt21  1  0.24600000  0.25300000  0.50000000  0.18
  Fe0+  Fe22  1  0.55400000  0.14700000  0.50000000  0.82
  Pt0+  Pt23  1  0.55400000  0.14700000  0.50000000  0.18
  Fe0+  Fe24  1  0.44600000  0.85300000  0.50000000  0.82
  Pt0+  Pt25  1  0.44600000  0.85300000  0.50000000  0.18
  Fe0+  Fe26  1  0.95600000  0.34700000  0.50000000  0.82
  Pt0+  Pt27  1  0.95600000  0.34700000  0.50000000  0.18
  Fe0+  Fe28  1  0.04400000  0.65300000  0.50000000  0.82
  Pt0+  Pt29  1  0.04400000  0.65300000  0.50000000  0.18
  As0+  As30  1  0.51460000  0.38450000  0.63195000  1.0
  As0+  As31  1  0.48540000  0.61550000  0.36805000  1.0
  As0+  As32  1  0.71510000  0.98250000  0.63195000  1.0
  As0+  As33  1  0.28490000  0.01750000  0.36805000  1.0
  As0+  As34  1  0.31580000  0.78330000  0.63195000  1.0
  As0+  As35  1  0.68420000  0.21670000  0.36805000  1.0
  As0+  As36  1  0.91390000  0.58320000  0.63195000  1.0
  As0+  As37  1  0.08610000  0.41680000  0.36805000  1.0
  As0+  As38  1  0.11430000  0.18290000  0.63195000  1.0
  As0+  As39  1  0.88570000  0.81710000  0.36805000  1.0
  As0+  As40  1  0.15200000  0.49600000  0.99600000  1.0
  As0+  As41  1  0.84800000  0.50400000  0.00400000  1.0
  As0+  As42  1  0.34500000  0.02500000  0.99600000  1.0
  As0+  As43  1  0.65500000  0.97500000  0.00400000  1.0
  As0+  As44  1  0.00500000  0.14200000  0.99600000  1.0
  As0+  As45  1  0.99500000  0.85800000  0.00400000  1.0
  As0+  As46  1  0.49600000  0.37200000  0.99600000  1.0
  As0+  As47  1  0.50400000  0.62800000  0.00400000  1.0
  Pt0+  Pt48  1  0.25000000  0.75000000  0.00000000  1.0
  Pt0+  Pt49  1  0.75000000  0.25000000  0.00000000  1.0
  Pt0+  Pt50  1  0.76600000  0.76500000  0.05790000  1.0
  Pt0+  Pt51  1  0.23400000  0.23500000  0.94210000  1.0
