# generated using pymatgen
data_K0.4Ba3.6Fe8As8
_symmetry_space_group_name_H-M   'P 1'
_cell_length_a   5.59970000
_cell_length_b   5.55870000
_cell_length_c   13.00310000
_cell_angle_alpha   90.00000000
_cell_angle_beta   90.00000000
_cell_angle_gamma   90.00000000
_symmetry_Int_Tables_number   1
_chemical_formula_structural   K0.4Ba3.6Fe8As8
_chemical_formula_sum   'K0.4 Ba3.6 Fe8 As8'
_cell_volume   404.74817493
_cell_formula_units_Z   1
loop_
 _symmetry_equiv_pos_site_id
 _symmetry_equiv_pos_as_xyz
  1  'x, y, z'
loop_
 _atom_type_symbol
 _atom_type_oxidation_number
  K+  1.0
  Ba2+  2.0
  Fe2.05+  2.05
  As3-  -3.0
loop_
 _atom_site_type_symbol
 _atom_site_label
 _atom_site_symmetry_multiplicity
 _atom_site_fract_x
 _atom_site_fract_y
 _atom_site_fract_z
 _atom_site_occupancy
  K+  K0  1  0.00000000  0.00000000  0.00000000  0.1
  Ba2+  Ba1  1  0.00000000  0.00000000  0.00000000  0.9
  K+  K2  1  0.00000000  0.50000000  0.50000000  0.1
  Ba2+  Ba3  1  0.00000000  0.50000000  0.50000000  0.9
  K+  K4  1  0.50000000  0.00000000  0.50000000  0.1
  Ba2+  Ba5  1  0.50000000  0.00000000  0.50000000  0.9
  K+  K6  1  0.50000000  0.50000000  0.00000000  0.1
  Ba2+  Ba7  1  0.50000000  0.50000000  0.00000000  0.9
  Fe2.05+  Fe8  1  0.25000000  0.25000000  0.75000000  1.0
  Fe2.05+  Fe9  1  0.25000000  0.75000000  0.25000000  1.0
  Fe2.05+  Fe10  1  0.75000000  0.25000000  0.25000000  1.0
  Fe2.05+  Fe11  1  0.75000000  0.75000000  0.75000000  1.0
  Fe2.05+  Fe12  1  0.75000000  0.75000000  0.25000000  1.0
  Fe2.05+  Fe13  1  0.75000000  0.25000000  0.75000000  1.0
  Fe2.05+  Fe14  1  0.25000000  0.75000000  0.75000000  1.0
  Fe2.05+  Fe15  1  0.25000000  0.25000000  0.25000000  1.0
  As3-  As16  1  0.00000000  0.00000000  0.64595000  1.0
  As3-  As17  1  0.00000000  0.00000000  0.35405000  1.0
  As3-  As18  1  0.00000000  0.50000000  0.14595000  1.0
  As3-  As19  1  0.00000000  0.50000000  0.85405000  1.0
  As3-  As20  1  0.50000000  0.00000000  0.14595000  1.0
  As3-  As21  1  0.50000000  0.00000000  0.85405000  1.0
  As3-  As22  1  0.50000000  0.50000000  0.64595000  1.0
  As3-  As23  1  0.50000000  0.50000000  0.35405000  1.0
