# generated using pymatgen
data_K0.6Ba1.4Fe4As4
_symmetry_space_group_name_H-M   'P 1'
_cell_length_a   3.91650000
_cell_length_b   3.91650000
_cell_length_c   13.16140000
_cell_angle_alpha   90.00000000
_cell_angle_beta   90.00000000
_cell_angle_gamma   90.00000000
_symmetry_Int_Tables_number   1
_chemical_formula_structural   K0.6Ba1.4Fe4As4
_chemical_formula_sum   'K0.6 Ba1.4 Fe4 As4'
_cell_volume   201.88234937
_cell_formula_units_Z   1
loop_
 _symmetry_equiv_pos_site_id
 _symmetry_equiv_pos_as_xyz
  1  'x, y, z'
loop_
 _atom_type_symbol
 _atom_type_oxidation_number
  K+  1.0
  Ba2+  2.0
  Fe2.15+  2.15
  As3-  -3.0
loop_
 _atom_site_type_symbol
 _atom_site_label
 _atom_site_symmetry_multiplicity
 _atom_site_fract_x
 _atom_site_fract_y
 _atom_site_fract_z
 _atom_site_occupancy
  K+  K0  1  0.00000000  0.00000000  0.00000000  0.3
  Ba2+  Ba1  1  0.00000000  0.00000000  0.00000000  0.7
  K+  K2  1  0.50000000  0.50000000  0.50000000  0.3
  Ba2+  Ba3  1  0.50000000  0.50000000  0.50000000  0.7
  Fe2.15+  Fe4  1  0.50000000  0.00000000  0.75000000  1.0
  Fe2.15+  Fe5  1  0.00000000  0.50000000  0.75000000  1.0
  Fe2.15+  Fe6  1  0.50000000  0.00000000  0.25000000  1.0
  Fe2.15+  Fe7  1  0.00000000  0.50000000  0.25000000  1.0
  As3-  As8  1  0.00000000  0.00000000  0.64617000  1.0
  As3-  As9  1  0.00000000  0.00000000  0.35383000  1.0
  As3-  As10  1  0.50000000  0.50000000  0.14617000  1.0
  As3-  As11  1  0.50000000  0.50000000  0.85383000  1.0
