# generated using pymatgen
data_Sr2Fe4As2.6P1.4
_symmetry_space_group_name_H-M   'P 1'
_cell_length_a   3.89630000
_cell_length_b   3.89630000
_cell_length_c   12.09200000
_cell_angle_alpha   90.00000000
_cell_angle_beta   90.00000000
_cell_angle_gamma   90.00000000
_symmetry_Int_Tables_number   1
_chemical_formula_structural   Sr2Fe4As2.6P1.4
_chemical_formula_sum   'Sr2 Fe4 As2.6 P1.4'
_cell_volume   183.57051042
_cell_formula_units_Z   1
loop_
 _symmetry_equiv_pos_site_id
 _symmetry_equiv_pos_as_xyz
  1  'x, y, z'
loop_
 _atom_type_symbol
 _atom_type_oxidation_number
  Sr2+  2.0
  Fe2+  2.0
  As3-  -3.0
  P3-  -3.0
loop_
 _atom_site_type_symbol
 _atom_site_label
 _atom_site_symmetry_multiplicity
 _atom_site_fract_x
 _atom_site_fract_y
 _atom_site_fract_z
 _atom_site_occupancy
  Sr2+  Sr0  1  0.00000000  0.00000000  0.00000000  1.0
  Sr2+  Sr1  1  0.50000000  0.50000000  0.50000000  1.0
  Fe2+  Fe2  1  0.00000000  0.50000000  0.75000000  1.0
  Fe2+  Fe3  1  0.50000000  0.00000000  0.75000000  1.0
  Fe2+  Fe4  1  0.00000000  0.50000000  0.25000000  1.0
  Fe2+  Fe5  1  0.50000000  0.00000000  0.25000000  1.0
  As3-  As6  1  0.00000000  0.00000000  0.64044000  0.65
  P3-  P7  1  0.00000000  0.00000000  0.64044000  0.35
  As3-  As8  1  0.00000000  0.00000000  0.35956000  0.65
  P3-  P9  1  0.00000000  0.00000000  0.35956000  0.35
  As3-  As10  1  0.50000000  0.50000000  0.14044000  0.65
  P3-  P11  1  0.50000000  0.50000000  0.14044000  0.35
  As3-  As12  1  0.50000000  0.50000000  0.85956000  0.65
  P3-  P13  1  0.50000000  0.50000000  0.85956000  0.35
