# generated using pymatgen
data_Fe2Se1.4Br0.6
_symmetry_space_group_name_H-M   'P 1'
_cell_length_a   3.77300000
_cell_length_b   3.77300000
_cell_length_c   5.52800000
_cell_angle_alpha   90.00000000
_cell_angle_beta   90.00000000
_cell_angle_gamma   90.00000000
_symmetry_Int_Tables_number   1
_chemical_formula_structural   Fe2Se1.4Br0.6
_chemical_formula_sum   'Fe2 Se1.4 Br0.6'
_cell_volume   78.69400431
_cell_formula_units_Z   1
loop_
 _symmetry_equiv_pos_site_id
 _symmetry_equiv_pos_as_xyz
  1  'x, y, z'
loop_
 _atom_type_symbol
 _atom_type_oxidation_number
  Fe1.7+  1.7
  Se2-  -2.0
  Br-  -1.0
loop_
 _atom_site_type_symbol
 _atom_site_label
 _atom_site_symmetry_multiplicity
 _atom_site_fract_x
 _atom_site_fract_y
 _atom_site_fract_z
 _atom_site_occupancy
  Fe1.7+  Fe0  1  0.25000000  0.75000000  0.00000000  1.0
  Fe1.7+  Fe1  1  0.75000000  0.25000000  0.00000000  1.0
  Se2-  Se2  1  0.75000000  0.75000000  0.71200000  0.7
  Br-  Br3  1  0.75000000  0.75000000  0.71200000  0.3
  Se2-  Se4  1  0.25000000  0.25000000  0.28800000  0.7
  Br-  Br5  1  0.25000000  0.25000000  0.28800000  0.3
