# generated using pymatgen
data_Fe2TeSe
_symmetry_space_group_name_H-M   'P 1'
_cell_length_a   3.80050000
_cell_length_b   3.80050000
_cell_length_c   5.99850000
_cell_angle_alpha   90.00000000
_cell_angle_beta   90.00000000
_cell_angle_gamma   90.00000000
_symmetry_Int_Tables_number   1
_chemical_formula_structural   Fe2TeSe
_chemical_formula_sum   'Fe2 Te1 Se1'
_cell_volume   86.64113580
_cell_formula_units_Z   1
loop_
 _symmetry_equiv_pos_site_id
 _symmetry_equiv_pos_as_xyz
  1  'x, y, z'
loop_
 _atom_type_symbol
 _atom_type_oxidation_number
  Fe2+  2.0
  Te2-  -2.0
  Se2-  -2.0
loop_
 _atom_site_type_symbol
 _atom_site_label
 _atom_site_symmetry_multiplicity
 _atom_site_fract_x
 _atom_site_fract_y
 _atom_site_fract_z
 _atom_site_occupancy
  Fe2+  Fe0  1  0.75000000  0.25000000  0.00000000  1.0
  Fe2+  Fe1  1  0.25000000  0.75000000  0.00000000  1.0
  Te2-  Te2  1  0.75000000  0.75000000  0.71370000  0.5
  Te2-  Te3  1  0.25000000  0.25000000  0.28630000  0.5
  Se2-  Se4  1  0.75000000  0.75000000  0.75370000  0.5
  Se2-  Se5  1  0.25000000  0.25000000  0.24630000  0.5
