# generated using pymatgen
data_Zr8Co2.8Cu1.2
_symmetry_space_group_name_H-M   'P 1'
_cell_length_a   6.45200000
_cell_length_b   6.45200000
_cell_length_c   5.38600000
_cell_angle_alpha   90.00000000
_cell_angle_beta   90.00000000
_cell_angle_gamma   90.00000000
_symmetry_Int_Tables_number   1
_chemical_formula_structural   Zr8Co2.8Cu1.2
_chemical_formula_sum   'Zr8 Co2.8 Cu1.2'
_cell_volume   224.21004534
_cell_formula_units_Z   1
loop_
 _symmetry_equiv_pos_site_id
 _symmetry_equiv_pos_as_xyz
  1  'x, y, z'
loop_
 _atom_type_symbol
 _atom_type_oxidation_number
  Zr0+  0.0
  Co0+  0.0
  Cu0+  0.0
loop_
 _atom_site_type_symbol
 _atom_site_label
 _atom_site_symmetry_multiplicity
 _atom_site_fract_x
 _atom_site_fract_y
 _atom_site_fract_z
 _atom_site_occupancy
  Zr0+  Zr0  1  0.67000000  0.17000000  0.50000000  1.0
  Zr0+  Zr1  1  0.33000000  0.83000000  0.50000000  1.0
  Zr0+  Zr2  1  0.33000000  0.17000000  0.00000000  1.0
  Zr0+  Zr3  1  0.67000000  0.83000000  0.00000000  1.0
  Zr0+  Zr4  1  0.17000000  0.33000000  0.50000000  1.0
  Zr0+  Zr5  1  0.83000000  0.67000000  0.50000000  1.0
  Zr0+  Zr6  1  0.17000000  0.67000000  0.00000000  1.0
  Zr0+  Zr7  1  0.83000000  0.33000000  0.00000000  1.0
  Co0+  Co8  1  0.00000000  0.00000000  0.25000000  0.7
  Cu0+  Cu9  1  0.00000000  0.00000000  0.25000000  0.3
  Co0+  Co10  1  0.00000000  0.00000000  0.75000000  0.7
  Cu0+  Cu11  1  0.00000000  0.00000000  0.75000000  0.3
  Co0+  Co12  1  0.50000000  0.50000000  0.75000000  0.7
  Cu0+  Cu13  1  0.50000000  0.50000000  0.75000000  0.3
  Co0+  Co14  1  0.50000000  0.50000000  0.25000000  0.7
  Cu0+  Cu15  1  0.50000000  0.50000000  0.25000000  0.3
