# generated using pymatgen
data_La2Bi4Pd1.7
_symmetry_space_group_name_H-M   'P 1'
_cell_length_a   4.63400000
_cell_length_b   4.63400000
_cell_length_c   9.94360000
_cell_angle_alpha   90.00000000
_cell_angle_beta   90.00000000
_cell_angle_gamma   90.00000000
_symmetry_Int_Tables_number   1
_chemical_formula_structural   La2Bi4Pd1.7
_chemical_formula_sum   'La2 Bi4 Pd1.7'
_cell_volume   213.52842888
_cell_formula_units_Z   1
loop_
 _symmetry_equiv_pos_site_id
 _symmetry_equiv_pos_as_xyz
  1  'x, y, z'
loop_
 _atom_type_symbol
 _atom_type_oxidation_number
  La0+  0.0
  Bi0+  0.0
  Pd0+  0.0
loop_
 _atom_site_type_symbol
 _atom_site_label
 _atom_site_symmetry_multiplicity
 _atom_site_fract_x
 _atom_site_fract_y
 _atom_site_fract_z
 _atom_site_occupancy
  La0+  La0  1  0.75000000  0.75000000  0.73770000  1.0
  La0+  La1  1  0.25000000  0.25000000  0.26230000  1.0
  Bi0+  Bi2  1  0.75000000  0.25000000  0.00000000  1.0
  Bi0+  Bi3  1  0.25000000  0.75000000  0.00000000  1.0
  Bi0+  Bi4  1  0.75000000  0.75000000  0.33630000  1.0
  Bi0+  Bi5  1  0.25000000  0.25000000  0.66370000  1.0
  Pd0+  Pd6  1  0.75000000  0.25000000  0.50000000  0.85
  Pd0+  Pd7  1  0.25000000  0.75000000  0.50000000  0.85
