# generated using pymatgen
data_Nd2Bi2S4O1.4F0.6
_symmetry_space_group_name_H-M   'P 1'
_cell_length_a   3.99600000
_cell_length_b   3.99600000
_cell_length_c   13.46400000
_cell_angle_alpha   90.00000000
_cell_angle_beta   90.00000000
_cell_angle_gamma   90.00000000
_symmetry_Int_Tables_number   1
_chemical_formula_structural   Nd2Bi2S4O1.4F0.6
_chemical_formula_sum   'Nd2 Bi2 S4 O1.4 F0.6'
_cell_volume   214.99336742
_cell_formula_units_Z   1
loop_
 _symmetry_equiv_pos_site_id
 _symmetry_equiv_pos_as_xyz
  1  'x, y, z'
loop_
 _atom_type_symbol
 _atom_type_oxidation_number
  Nd3+  3.0
  Bi2.7+  2.7
  S2-  -2.0
  O2-  -2.0
  F-  -1.0
loop_
 _atom_site_type_symbol
 _atom_site_label
 _atom_site_symmetry_multiplicity
 _atom_site_fract_x
 _atom_site_fract_y
 _atom_site_fract_z
 _atom_site_occupancy
  Nd3+  Nd0  1  0.25000000  0.25000000  0.40530000  1.0
  Nd3+  Nd1  1  0.75000000  0.75000000  0.59470000  1.0
  Bi2.7+  Bi2  1  0.75000000  0.75000000  0.12593000  1.0
  Bi2.7+  Bi3  1  0.25000000  0.25000000  0.87407000  1.0
  S2-  S4  1  0.25000000  0.25000000  0.12000000  1.0
  S2-  S5  1  0.75000000  0.75000000  0.88000000  1.0
  S2-  S6  1  0.75000000  0.75000000  0.31400000  1.0
  S2-  S7  1  0.25000000  0.25000000  0.68600000  1.0
  O2-  O8  1  0.25000000  0.75000000  0.50000000  0.7
  F-  F9  1  0.25000000  0.75000000  0.50000000  0.3
  O2-  O10  1  0.75000000  0.25000000  0.50000000  0.7
  F-  F11  1  0.75000000  0.25000000  0.50000000  0.3
