# generated using pymatgen
data_Ba0.8Na1.2Fe4As4
_symmetry_space_group_name_H-M   'P 1'
_cell_length_a   3.85330000
_cell_length_b   3.85330000
_cell_length_c   12.97904000
_cell_angle_alpha   90.00000000
_cell_angle_beta   90.00000000
_cell_angle_gamma   90.00000000
_symmetry_Int_Tables_number   1
_chemical_formula_structural   Ba0.8Na1.2Fe4As4
_chemical_formula_sum   'Ba0.8 Na1.2 Fe4 As4'
_cell_volume   192.71175915
_cell_formula_units_Z   1
loop_
 _symmetry_equiv_pos_site_id
 _symmetry_equiv_pos_as_xyz
  1  'x, y, z'
loop_
 _atom_type_symbol
 _atom_type_oxidation_number
  Ba2+  2.0
  Na+  1.0
  Fe2.3+  2.3
  As3-  -3.0
loop_
 _atom_site_type_symbol
 _atom_site_label
 _atom_site_symmetry_multiplicity
 _atom_site_fract_x
 _atom_site_fract_y
 _atom_site_fract_z
 _atom_site_occupancy
  Ba2+  Ba0  1  0.00000000  0.00000000  0.00000000  0.4
  Na+  Na1  1  0.00000000  0.00000000  0.00000000  0.6
  Ba2+  Ba2  1  0.50000000  0.50000000  0.50000000  0.4
  Na+  Na3  1  0.50000000  0.50000000  0.50000000  0.6
  Fe2.3+  Fe4  1  0.50000000  0.00000000  0.75000000  1.0
  Fe2.3+  Fe5  1  0.00000000  0.50000000  0.75000000  1.0
  Fe2.3+  Fe6  1  0.50000000  0.00000000  0.25000000  1.0
  Fe2.3+  Fe7  1  0.00000000  0.50000000  0.25000000  1.0
  As3-  As8  1  0.00000000  0.00000000  0.64114000  1.0
  As3-  As9  1  0.00000000  0.00000000  0.35886000  1.0
  As3-  As10  1  0.50000000  0.50000000  0.14114000  1.0
  As3-  As11  1  0.50000000  0.50000000  0.85886000  1.0
