# generated using pymatgen
data_Ba4Fe8As6.08P1.92
_symmetry_space_group_name_H-M   'P 1'
_cell_length_a   5.57037000
_cell_length_b   5.55420000
_cell_length_c   12.80496000
_cell_angle_alpha   90.00000000
_cell_angle_beta   90.00000000
_cell_angle_gamma   90.00000000
_symmetry_Int_Tables_number   1
_chemical_formula_structural   Ba4Fe8As6.08P1.92
_chemical_formula_sum   'Ba4 Fe8 As6.08 P1.92'
_cell_volume   396.17200508
_cell_formula_units_Z   1
loop_
 _symmetry_equiv_pos_site_id
 _symmetry_equiv_pos_as_xyz
  1  'x, y, z'
loop_
 _atom_type_symbol
 _atom_type_oxidation_number
  Ba2+  2.0
  Fe2+  2.0
  As3-  -3.0
  P3-  -3.0
loop_
 _atom_site_type_symbol
 _atom_site_label
 _atom_site_symmetry_multiplicity
 _atom_site_fract_x
 _atom_site_fract_y
 _atom_site_fract_z
 _atom_site_occupancy
  Ba2+  Ba0  1  0.00000000  0.00000000  0.00000000  1.0
  Ba2+  Ba1  1  0.00000000  0.50000000  0.50000000  1.0
  Ba2+  Ba2  1  0.50000000  0.00000000  0.50000000  1.0
  Ba2+  Ba3  1  0.50000000  0.50000000  0.00000000  1.0
  Fe2+  Fe4  1  0.25000000  0.25000000  0.75000000  1.0
  Fe2+  Fe5  1  0.25000000  0.75000000  0.25000000  1.0
  Fe2+  Fe6  1  0.75000000  0.25000000  0.25000000  1.0
  Fe2+  Fe7  1  0.75000000  0.75000000  0.75000000  1.0
  Fe2+  Fe8  1  0.75000000  0.75000000  0.25000000  1.0
  Fe2+  Fe9  1  0.75000000  0.25000000  0.75000000  1.0
  Fe2+  Fe10  1  0.25000000  0.75000000  0.75000000  1.0
  Fe2+  Fe11  1  0.25000000  0.25000000  0.25000000  1.0
  As3-  As12  1  0.00000000  0.00000000  0.64769000  0.76
  P3-  P13  1  0.00000000  0.00000000  0.64769000  0.24
  As3-  As14  1  0.00000000  0.00000000  0.35231000  0.76
  P3-  P15  1  0.00000000  0.00000000  0.35231000  0.24
  As3-  As16  1  0.00000000  0.50000000  0.14769000  0.76
  P3-  P17  1  0.00000000  0.50000000  0.14769000  0.24
  As3-  As18  1  0.00000000  0.50000000  0.85231000  0.76
  P3-  P19  1  0.00000000  0.50000000  0.85231000  0.24
  As3-  As20  1  0.50000000  0.00000000  0.14769000  0.76
  P3-  P21  1  0.50000000  0.00000000  0.14769000  0.24
  As3-  As22  1  0.50000000  0.00000000  0.85231000  0.76
  P3-  P23  1  0.50000000  0.00000000  0.85231000  0.24
  As3-  As24  1  0.50000000  0.50000000  0.64769000  0.76
  P3-  P25  1  0.50000000  0.50000000  0.64769000  0.24
  As3-  As26  1  0.50000000  0.50000000  0.35231000  0.76
  P3-  P27  1  0.50000000  0.50000000  0.35231000  0.24
