# generated using pymatgen
data_Li1.64Fe2.36H2Se2O2
_symmetry_space_group_name_H-M   'P 1'
_cell_length_a   3.78480000
_cell_length_b   3.78480000
_cell_length_c   9.28760000
_cell_angle_alpha   90.00000000
_cell_angle_beta   90.00000000
_cell_angle_gamma   90.00000000
_symmetry_Int_Tables_number   1
_chemical_formula_structural   Li1.64Fe2.36H2Se2O2
_chemical_formula_sum   'Li1.64 Fe2.36 H2 Se2 O2'
_cell_volume   133.04218626
_cell_formula_units_Z   1
loop_
 _symmetry_equiv_pos_site_id
 _symmetry_equiv_pos_as_xyz
  1  'x, y, z'
loop_
 _atom_type_symbol
 _atom_type_oxidation_number
  Li+  1.0
  Fe1.84+  1.84
  H+  1.0
  Se2-  -2.0
  O2-  -2.0
loop_
 _atom_site_type_symbol
 _atom_site_label
 _atom_site_symmetry_multiplicity
 _atom_site_fract_x
 _atom_site_fract_y
 _atom_site_fract_z
 _atom_site_occupancy
  Li+  Li0  1  0.75000000  0.25000000  0.00000000  0.82
  Fe1.84+  Fe1  1  0.75000000  0.25000000  0.00000000  0.18
  Li+  Li2  1  0.25000000  0.75000000  0.00000000  0.82
  Fe1.84+  Fe3  1  0.25000000  0.75000000  0.00000000  0.18
  Fe1.84+  Fe4  1  0.75000000  0.25000000  0.50000000  1.0
  Fe1.84+  Fe5  1  0.25000000  0.75000000  0.50000000  1.0
  H+  H6  1  0.25000000  0.25000000  0.82350000  1.0
  H+  H7  1  0.75000000  0.75000000  0.17650000  1.0
  Se2-  Se8  1  0.75000000  0.75000000  0.66080000  1.0
  Se2-  Se9  1  0.25000000  0.25000000  0.33920000  1.0
  O2-  O10  1  0.75000000  0.75000000  0.07150000  1.0
  O2-  O11  1  0.25000000  0.25000000  0.92850000  1.0
