# generated using pymatgen
data_Ta3Te0.9Se5.1
_symmetry_space_group_name_H-M   'P 1'
_cell_length_a   3.46030000
_cell_length_b   3.46030000
_cell_length_c   19.52300000
_cell_angle_alpha   90.00000000
_cell_angle_beta   90.00000000
_cell_angle_gamma   120.00000000
_symmetry_Int_Tables_number   1
_chemical_formula_structural   Ta3Te0.9Se5.1
_chemical_formula_sum   'Ta3 Te0.9 Se5.1'
_cell_volume   202.44389825
_cell_formula_units_Z   1
loop_
 _symmetry_equiv_pos_site_id
 _symmetry_equiv_pos_as_xyz
  1  'x, y, z'
loop_
 _atom_type_symbol
 _atom_type_oxidation_number
  Ta4+  4.0
  Te2-  -2.0
  Se2-  -2.0
loop_
 _atom_site_type_symbol
 _atom_site_label
 _atom_site_symmetry_multiplicity
 _atom_site_fract_x
 _atom_site_fract_y
 _atom_site_fract_z
 _atom_site_occupancy
  Ta4+  Ta0  1  0.00000000  0.00000000  0.29310000  1.0
  Ta4+  Ta1  1  0.66666667  0.33333333  0.62643333  1.0
  Ta4+  Ta2  1  0.33333333  0.66666667  0.95976667  1.0
  Te2-  Te3  1  0.33333333  0.66666667  0.20590000  0.15
  Se2-  Se4  1  0.33333333  0.66666667  0.20590000  0.85
  Te2-  Te5  1  0.00000000  0.00000000  0.53923333  0.15
  Se2-  Se6  1  0.00000000  0.00000000  0.53923333  0.85
  Te2-  Te7  1  0.66666667  0.33333333  0.87256667  0.15
  Se2-  Se8  1  0.66666667  0.33333333  0.87256667  0.85
  Te2-  Te9  1  0.33333333  0.66666667  0.38040000  0.15
  Se2-  Se10  1  0.33333333  0.66666667  0.38040000  0.85
  Te2-  Te11  1  0.00000000  0.00000000  0.71373333  0.15
  Se2-  Se12  1  0.00000000  0.00000000  0.71373333  0.85
  Te2-  Te13  1  0.66666667  0.33333333  0.04706667  0.15
  Se2-  Se14  1  0.66666667  0.33333333  0.04706667  0.85
