# generated using pymatgen
data_Zr0.18Nb5.82Al2
_symmetry_space_group_name_H-M   'P 1'
_cell_length_a   5.19800000
_cell_length_b   5.19800000
_cell_length_c   5.19800000
_cell_angle_alpha   90.00000000
_cell_angle_beta   90.00000000
_cell_angle_gamma   90.00000000
_symmetry_Int_Tables_number   1
_chemical_formula_structural   Zr0.18Nb5.82Al2
_chemical_formula_sum   'Zr0.18 Nb5.82 Al2'
_cell_volume   140.44582239
_cell_formula_units_Z   1
loop_
 _symmetry_equiv_pos_site_id
 _symmetry_equiv_pos_as_xyz
  1  'x, y, z'
loop_
 _atom_type_symbol
 _atom_type_oxidation_number
  Zr0+  0.0
  Nb0+  0.0
  Al0+  0.0
loop_
 _atom_site_type_symbol
 _atom_site_label
 _atom_site_symmetry_multiplicity
 _atom_site_fract_x
 _atom_site_fract_y
 _atom_site_fract_z
 _atom_site_occupancy
  Zr0+  Zr0  1  0.00000000  0.50000000  0.75000000  0.03
  Nb0+  Nb1  1  0.00000000  0.50000000  0.75000000  0.97
  Zr0+  Zr2  1  0.50000000  0.25000000  0.00000000  0.03
  Nb0+  Nb3  1  0.50000000  0.25000000  0.00000000  0.97
  Zr0+  Zr4  1  0.75000000  0.00000000  0.50000000  0.03
  Nb0+  Nb5  1  0.75000000  0.00000000  0.50000000  0.97
  Zr0+  Zr6  1  0.00000000  0.50000000  0.25000000  0.03
  Nb0+  Nb7  1  0.00000000  0.50000000  0.25000000  0.97
  Zr0+  Zr8  1  0.50000000  0.75000000  0.00000000  0.03
  Nb0+  Nb9  1  0.50000000  0.75000000  0.00000000  0.97
  Zr0+  Zr10  1  0.25000000  0.00000000  0.50000000  0.03
  Nb0+  Nb11  1  0.25000000  0.00000000  0.50000000  0.97
  Al0+  Al12  1  0.50000000  0.50000000  0.50000000  1.0
  Al0+  Al13  1  0.00000000  0.00000000  0.00000000  1.0
