# generated using pymatgen
data_Nb6.75Rh11.25
_symmetry_space_group_name_H-M   'P 1'
_cell_length_a   2.80600000
_cell_length_b   4.77200000
_cell_length_c   20.25000000
_cell_angle_alpha   90.00000000
_cell_angle_beta   90.52500000
_cell_angle_gamma   90.00000000
_symmetry_Int_Tables_number   1
_chemical_formula_structural   Nb6.75Rh11.25
_chemical_formula_sum   'Nb6.75 Rh11.25'
_cell_volume   271.14081509
_cell_formula_units_Z   1
loop_
 _symmetry_equiv_pos_site_id
 _symmetry_equiv_pos_as_xyz
  1  'x, y, z'
loop_
 _atom_type_symbol
 _atom_type_oxidation_number
  Nb0+  0.0
  Rh0+  0.0
loop_
 _atom_site_type_symbol
 _atom_site_label
 _atom_site_symmetry_multiplicity
 _atom_site_fract_x
 _atom_site_fract_y
 _atom_site_fract_z
 _atom_site_occupancy
  Nb0+  Nb0  1  0.00000000  0.66666667  0.11110000  0.75
  Rh0+  Rh1  1  0.00000000  0.66666667  0.11110000  0.25
  Nb0+  Nb2  1  0.00000000  0.33333333  0.88890000  0.75
  Rh0+  Rh3  1  0.00000000  0.33333333  0.88890000  0.25
  Nb0+  Nb4  1  0.00000000  0.00000000  0.22220000  0.75
  Rh0+  Rh5  1  0.00000000  0.00000000  0.22220000  0.25
  Nb0+  Nb6  1  0.00000000  0.00000000  0.77780000  0.75
  Rh0+  Rh7  1  0.00000000  0.00000000  0.77780000  0.25
  Nb0+  Nb8  1  0.00000000  0.66666667  0.33333333  0.75
  Rh0+  Rh9  1  0.00000000  0.66666667  0.33333333  0.25
  Nb0+  Nb10  1  0.00000000  0.33333333  0.66666667  0.75
  Rh0+  Rh11  1  0.00000000  0.33333333  0.66666667  0.25
  Nb0+  Nb12  1  0.00000000  0.33333333  0.44440000  0.75
  Rh0+  Rh13  1  0.00000000  0.33333333  0.44440000  0.25
  Nb0+  Nb14  1  0.00000000  0.66666667  0.55560000  0.75
  Rh0+  Rh15  1  0.00000000  0.66666667  0.55560000  0.25
  Nb0+  Nb16  1  0.00000000  0.00000000  0.00000000  0.75
  Rh0+  Rh17  1  0.00000000  0.00000000  0.00000000  0.25
  Rh0+  Rh18  1  0.50000000  0.16670000  0.11110000  1.0
  Rh0+  Rh19  1  0.50000000  0.83330000  0.88890000  1.0
  Rh0+  Rh20  1  0.50000000  0.50000000  0.22220000  1.0
  Rh0+  Rh21  1  0.50000000  0.50000000  0.77780000  1.0
  Rh0+  Rh22  1  0.50000000  0.16670000  0.33333333  1.0
  Rh0+  Rh23  1  0.50000000  0.83330000  0.66666667  1.0
  Rh0+  Rh24  1  0.50000000  0.83330000  0.44440000  1.0
  Rh0+  Rh25  1  0.50000000  0.16670000  0.55560000  1.0
  Rh0+  Rh26  1  0.50000000  0.50000000  0.00000000  1.0
