# generated using pymatgen
data_HfZrV4
_symmetry_space_group_name_H-M   'P 1'
_cell_length_a   7.42000000
_cell_length_b   7.42000000
_cell_length_c   7.42000000
_cell_angle_alpha   90.00000000
_cell_angle_beta   90.00000000
_cell_angle_gamma   90.00000000
_symmetry_Int_Tables_number   1
_chemical_formula_structural   HfZrV4
_chemical_formula_sum   'Hf4 Zr4 V16'
_cell_volume   408.51848800
_cell_formula_units_Z   4
loop_
 _symmetry_equiv_pos_site_id
 _symmetry_equiv_pos_as_xyz
  1  'x, y, z'
loop_
 _atom_type_symbol
 _atom_type_oxidation_number
  Hf0+  0.0
  Zr0+  0.0
  V0+  0.0
loop_
 _atom_site_type_symbol
 _atom_site_label
 _atom_site_symmetry_multiplicity
 _atom_site_fract_x
 _atom_site_fract_y
 _atom_site_fract_z
 _atom_site_occupancy
  Hf0+  Hf0  1  0.25000000  0.25000000  0.25000000  0.5
  Zr0+  Zr1  1  0.25000000  0.25000000  0.25000000  0.5
  Hf0+  Hf2  1  0.00000000  0.00000000  0.00000000  0.5
  Zr0+  Zr3  1  0.00000000  0.00000000  0.00000000  0.5
  Hf0+  Hf4  1  0.25000000  0.75000000  0.75000000  0.5
  Zr0+  Zr5  1  0.25000000  0.75000000  0.75000000  0.5
  Hf0+  Hf6  1  0.00000000  0.50000000  0.50000000  0.5
  Zr0+  Zr7  1  0.00000000  0.50000000  0.50000000  0.5
  Hf0+  Hf8  1  0.75000000  0.25000000  0.75000000  0.5
  Zr0+  Zr9  1  0.75000000  0.25000000  0.75000000  0.5
  Hf0+  Hf10  1  0.50000000  0.00000000  0.50000000  0.5
  Zr0+  Zr11  1  0.50000000  0.00000000  0.50000000  0.5
  Hf0+  Hf12  1  0.75000000  0.75000000  0.25000000  0.5
  Zr0+  Zr13  1  0.75000000  0.75000000  0.25000000  0.5
  Hf0+  Hf14  1  0.50000000  0.50000000  0.00000000  0.5
  Zr0+  Zr15  1  0.50000000  0.50000000  0.00000000  0.5
  V0+  V16  1  0.87500000  0.87500000  0.62500000  1.0
  V0+  V17  1  0.87500000  0.62500000  0.87500000  1.0
  V0+  V18  1  0.62500000  0.87500000  0.87500000  1.0
  V0+  V19  1  0.62500000  0.62500000  0.62500000  1.0
  V0+  V20  1  0.37500000  0.37500000  0.62500000  1.0
  V0+  V21  1  0.37500000  0.62500000  0.37500000  1.0
  V0+  V22  1  0.62500000  0.37500000  0.37500000  1.0
  V0+  V23  1  0.87500000  0.37500000  0.12500000  1.0
  V0+  V24  1  0.87500000  0.12500000  0.37500000  1.0
  V0+  V25  1  0.62500000  0.12500000  0.12500000  1.0
  V0+  V26  1  0.37500000  0.87500000  0.12500000  1.0
  V0+  V27  1  0.37500000  0.12500000  0.87500000  1.0
  V0+  V28  1  0.12500000  0.87500000  0.37500000  1.0
  V0+  V29  1  0.12500000  0.62500000  0.12500000  1.0
  V0+  V30  1  0.12500000  0.37500000  0.87500000  1.0
  V0+  V31  1  0.12500000  0.12500000  0.62500000  1.0
