# generated using pymatgen
data_Li1.8Mo12O34
_symmetry_space_group_name_H-M   'P 1'
_cell_length_a   12.76200000
_cell_length_b   5.52300000
_cell_length_c   9.49900000
_cell_angle_alpha   90.00000000
_cell_angle_beta   90.61000000
_cell_angle_gamma   90.00000000
_symmetry_Int_Tables_number   1
_chemical_formula_structural   Li1.8Mo12O34
_chemical_formula_sum   'Li1.8 Mo12 O34'
_cell_volume   669.49456770
_cell_formula_units_Z   1
loop_
 _symmetry_equiv_pos_site_id
 _symmetry_equiv_pos_as_xyz
  1  'x, y, z'
loop_
 _atom_type_symbol
 _atom_type_oxidation_number
  Li+  1.0
  Mo5.52+  5.52
  O2-  -2.0
loop_
 _atom_site_type_symbol
 _atom_site_label
 _atom_site_symmetry_multiplicity
 _atom_site_fract_x
 _atom_site_fract_y
 _atom_site_fract_z
 _atom_site_occupancy
  Li+  Li0  1  0.40240000  0.75000000  0.40900000  0.9
  Li+  Li1  1  0.59760000  0.25000000  0.59100000  0.9
  Mo5.52+  Mo2  1  0.99387000  0.25000000  0.23356000  1.0
  Mo5.52+  Mo3  1  0.00613000  0.75000000  0.76644000  1.0
  Mo5.52+  Mo4  1  0.14436000  0.75000000  0.41840000  1.0
  Mo5.52+  Mo5  1  0.85564000  0.25000000  0.58160000  1.0
  Mo5.52+  Mo6  1  0.31105000  0.25000000  0.56755000  1.0
  Mo5.52+  Mo7  1  0.68895000  0.75000000  0.43245000  1.0
  Mo5.52+  Mo8  1  0.16635000  0.25000000  0.92062000  1.0
  Mo5.52+  Mo9  1  0.83365000  0.75000000  0.07938000  1.0
  Mo5.52+  Mo10  1  0.31980000  0.75000000  0.09404000  1.0
  Mo5.52+  Mo11  1  0.68020000  0.25000000  0.90596000  1.0
  Mo5.52+  Mo12  1  0.49299000  0.25000000  0.19604000  1.0
  Mo5.52+  Mo13  1  0.50701000  0.75000000  0.80396000  1.0
  O2-  O14  1  0.09143000  0.25000000  0.08766000  1.0
  O2-  O15  1  0.90857000  0.75000000  0.91234000  1.0
  O2-  O16  1  0.54289000  0.25000000  0.02127000  1.0
  O2-  O17  1  0.45711000  0.75000000  0.97873000  1.0
  O2-  O18  1  0.59382000  0.25000000  0.31731000  1.0
  O2-  O19  1  0.40618000  0.75000000  0.68269000  1.0
  O2-  O20  1  0.89915000  0.25000000  0.40477000  1.0
  O2-  O21  1  0.10085000  0.75000000  0.59523000  1.0
  O2-  O22  1  0.23138000  0.75000000  0.23518000  1.0
  O2-  O23  1  0.76862000  0.25000000  0.76482000  1.0
  O2-  O24  1  0.73940000  0.75000000  0.25932000  1.0
  O2-  O25  1  0.26060000  0.25000000  0.74068000  1.0
  O2-  O26  1  0.55358000  0.75000000  0.43731000  1.0
  O2-  O27  1  0.44642000  0.25000000  0.56269000  1.0
  O2-  O28  1  0.07260000  0.99685000  0.34471000  1.0
  O2-  O29  1  0.92740000  0.49685000  0.65529000  1.0
  O2-  O30  1  0.92740000  0.00315000  0.65529000  1.0
  O2-  O31  1  0.07260000  0.50315000  0.34471000  1.0
  O2-  O32  1  0.41409000  0.98575000  0.22288000  1.0
  O2-  O33  1  0.58591000  0.48575000  0.77712000  1.0
  O2-  O34  1  0.58591000  0.01425000  0.77712000  1.0
  O2-  O35  1  0.41409000  0.51425000  0.22288000  1.0
  O2-  O36  1  0.26955000  0.99815000  0.99617000  1.0
  O2-  O37  1  0.73045000  0.49815000  0.00383000  1.0
  O2-  O38  1  0.73045000  0.00185000  0.00383000  1.0
  O2-  O39  1  0.26955000  0.50185000  0.99617000  1.0
  O2-  O40  1  0.91393000  0.00002000  0.15323000  1.0
  O2-  O41  1  0.08607000  0.50002000  0.84677000  1.0
  O2-  O42  1  0.08607000  0.99998000  0.84677000  1.0
  O2-  O43  1  0.91393000  0.49998000  0.15323000  1.0
  O2-  O44  1  0.26811000  0.98713000  0.47264000  1.0
  O2-  O45  1  0.73189000  0.48713000  0.52736000  1.0
  O2-  O46  1  0.73189000  0.01287000  0.52736000  1.0
  O2-  O47  1  0.26811000  0.51287000  0.47264000  1.0
