# generated using pymatgen
data_Ba2Ca0.2Y0.8Cu3O6.22
_symmetry_space_group_name_H-M   'P 1'
_cell_length_a   3.86110000
_cell_length_b   3.86110000
_cell_length_c   11.82600000
_cell_angle_alpha   90.00000000
_cell_angle_beta   90.00000000
_cell_angle_gamma   90.00000000
_symmetry_Int_Tables_number   1
_chemical_formula_structural   Ba2Ca0.2Y0.8Cu3O6.22
_chemical_formula_sum   'Ba2 Ca0.2 Y0.8 Cu3 O6.22'
_cell_volume   176.30311030
_cell_formula_units_Z   1
loop_
 _symmetry_equiv_pos_site_id
 _symmetry_equiv_pos_as_xyz
  1  'x, y, z'
loop_
 _atom_type_symbol
 _atom_type_oxidation_number
  Ba2+  2.0
  Ca2+  2.0
  Y3+  3.0
  Cu1.88+  1.88
  O2-  -2.0
loop_
 _atom_site_type_symbol
 _atom_site_label
 _atom_site_symmetry_multiplicity
 _atom_site_fract_x
 _atom_site_fract_y
 _atom_site_fract_z
 _atom_site_occupancy
  Ba2+  Ba0  1  0.50000000  0.50000000  0.80890000  1.0
  Ba2+  Ba1  1  0.50000000  0.50000000  0.19110000  1.0
  Ca2+  Ca2  1  0.50000000  0.50000000  0.50000000  0.2
  Y3+  Y3  1  0.50000000  0.50000000  0.50000000  0.8
  Cu1.88+  Cu4  1  0.00000000  0.00000000  0.00000000  1.0
  Cu1.88+  Cu5  1  0.00000000  0.00000000  0.63740000  1.0
  Cu1.88+  Cu6  1  0.00000000  0.00000000  0.36260000  1.0
  O2-  O7  1  0.00000000  0.00000000  0.84730000  1.0
  O2-  O8  1  0.00000000  0.00000000  0.15270000  1.0
  O2-  O9  1  0.50000000  0.00000000  0.62560000  1.0
  O2-  O10  1  0.00000000  0.50000000  0.62560000  1.0
  O2-  O11  1  0.50000000  0.00000000  0.37440000  1.0
  O2-  O12  1  0.00000000  0.50000000  0.37440000  1.0
  O2-  O13  1  0.50000000  0.00000000  0.00000000  0.11
  O2-  O14  1  0.00000000  0.50000000  0.00000000  0.11
