# generated using pymatgen
data_Ba2Ca0.26Y0.74Cu3O6
_symmetry_space_group_name_H-M   'P 1'
_cell_length_a   3.85400000
_cell_length_b   3.85400000
_cell_length_c   11.80900000
_cell_angle_alpha   90.00000000
_cell_angle_beta   90.00000000
_cell_angle_gamma   90.00000000
_symmetry_Int_Tables_number   1
_chemical_formula_structural   Ba2Ca0.26Y0.74Cu3O6
_chemical_formula_sum   'Ba2 Ca0.26 Y0.74 Cu3 O6'
_cell_volume   175.40280864
_cell_formula_units_Z   1
loop_
 _symmetry_equiv_pos_site_id
 _symmetry_equiv_pos_as_xyz
  1  'x, y, z'
loop_
 _atom_type_symbol
 _atom_type_oxidation_number
  Ba2+  2.0
  Ca2+  2.0
  Y3+  3.0
  Cu1.75+  1.75
  O2-  -2.0
loop_
 _atom_site_type_symbol
 _atom_site_label
 _atom_site_symmetry_multiplicity
 _atom_site_fract_x
 _atom_site_fract_y
 _atom_site_fract_z
 _atom_site_occupancy
  Ba2+  Ba0  1  0.50000000  0.50000000  0.80670000  1.0
  Ba2+  Ba1  1  0.50000000  0.50000000  0.19330000  1.0
  Ca2+  Ca2  1  0.50000000  0.50000000  0.50000000  0.26
  Y3+  Y3  1  0.50000000  0.50000000  0.50000000  0.74
  Cu1.75+  Cu4  1  0.00000000  0.00000000  0.00000000  1.0
  Cu1.75+  Cu5  1  0.00000000  0.00000000  0.63860000  1.0
  Cu1.75+  Cu6  1  0.00000000  0.00000000  0.36140000  1.0
  O2-  O7  1  0.00000000  0.00000000  0.84790000  1.0
  O2-  O8  1  0.00000000  0.00000000  0.15210000  1.0
  O2-  O9  1  0.50000000  0.00000000  0.62470000  1.0
  O2-  O10  1  0.00000000  0.50000000  0.62470000  1.0
  O2-  O11  1  0.50000000  0.00000000  0.37530000  1.0
  O2-  O12  1  0.00000000  0.50000000  0.37530000  1.0
