# generated using pymatgen
data_Zn0.8Cu3.2Ir8S16
_symmetry_space_group_name_H-M   'P 1'
_cell_length_a   6.91850000
_cell_length_b   6.91850000
_cell_length_c   9.98300000
_cell_angle_alpha   90.00000000
_cell_angle_beta   90.00000000
_cell_angle_gamma   90.00000000
_symmetry_Int_Tables_number   1
_chemical_formula_structural   Zn0.8Cu3.2Ir8S16
_chemical_formula_sum   'Zn0.8 Cu3.2 Ir8 S16'
_cell_volume   477.84270658
_cell_formula_units_Z   1
loop_
 _symmetry_equiv_pos_site_id
 _symmetry_equiv_pos_as_xyz
  1  'x, y, z'
loop_
 _atom_type_symbol
 _atom_type_oxidation_number
  Zn2+  2.0
  Cu2+  2.0
  Ir3+  3.0
  S2-  -2.0
loop_
 _atom_site_type_symbol
 _atom_site_label
 _atom_site_symmetry_multiplicity
 _atom_site_fract_x
 _atom_site_fract_y
 _atom_site_fract_z
 _atom_site_occupancy
  Zn2+  Zn0  1  0.00000000  0.50000000  0.25000000  0.2
  Cu2+  Cu1  1  0.00000000  0.50000000  0.25000000  0.8
  Zn2+  Zn2  1  0.00000000  0.00000000  0.00000000  0.2
  Cu2+  Cu3  1  0.00000000  0.00000000  0.00000000  0.8
  Zn2+  Zn4  1  0.50000000  0.00000000  0.75000000  0.2
  Cu2+  Cu5  1  0.50000000  0.00000000  0.75000000  0.8
  Zn2+  Zn6  1  0.50000000  0.50000000  0.50000000  0.2
  Cu2+  Cu7  1  0.50000000  0.50000000  0.50000000  0.8
  Ir3+  Ir8  1  0.25000000  0.50000000  0.87500000  1.0
  Ir3+  Ir9  1  0.75000000  0.50000000  0.87500000  1.0
  Ir3+  Ir10  1  0.25000000  0.00000000  0.37500000  1.0
  Ir3+  Ir11  1  0.75000000  0.00000000  0.37500000  1.0
  Ir3+  Ir12  1  0.00000000  0.25000000  0.62500000  1.0
  Ir3+  Ir13  1  0.00000000  0.75000000  0.62500000  1.0
  Ir3+  Ir14  1  0.50000000  0.75000000  0.12500000  1.0
  Ir3+  Ir15  1  0.50000000  0.25000000  0.12500000  1.0
  S2-  S16  1  0.23800000  0.50000000  0.64520000  1.0
  S2-  S17  1  0.76200000  0.50000000  0.64520000  1.0
  S2-  S18  1  0.23800000  0.00000000  0.60480000  1.0
  S2-  S19  1  0.76200000  0.00000000  0.60480000  1.0
  S2-  S20  1  0.00000000  0.26200000  0.85480000  1.0
  S2-  S21  1  0.00000000  0.73800000  0.85480000  1.0
  S2-  S22  1  0.00000000  0.76200000  0.39520000  1.0
  S2-  S23  1  0.00000000  0.23800000  0.39520000  1.0
  S2-  S24  1  0.73800000  0.00000000  0.14520000  1.0
  S2-  S25  1  0.26200000  0.00000000  0.14520000  1.0
  S2-  S26  1  0.73800000  0.50000000  0.10480000  1.0
  S2-  S27  1  0.26200000  0.50000000  0.10480000  1.0
  S2-  S28  1  0.50000000  0.76200000  0.35480000  1.0
  S2-  S29  1  0.50000000  0.23800000  0.35480000  1.0
  S2-  S30  1  0.50000000  0.26200000  0.89520000  1.0
  S2-  S31  1  0.50000000  0.73800000  0.89520000  1.0
