# generated using pymatgen
data_Bi4S3O4
_symmetry_space_group_name_H-M   'P 1'
_cell_length_a   3.96228000
_cell_length_b   3.96228000
_cell_length_c   41.26192000
_cell_angle_alpha   90.00000000
_cell_angle_beta   90.00000000
_cell_angle_gamma   90.00000000
_symmetry_Int_Tables_number   1
_chemical_formula_structural   Bi4S3O4
_chemical_formula_sum   'Bi12 S9 O12'
_cell_volume   647.79823041
_cell_formula_units_Z   3
loop_
 _symmetry_equiv_pos_site_id
 _symmetry_equiv_pos_as_xyz
  1  'x, y, z'
loop_
 _atom_type_symbol
 _atom_type_oxidation_number
  Bi3+  3.0
  S1.33-  -1.33
  O2-  -2.0
loop_
 _atom_site_type_symbol
 _atom_site_label
 _atom_site_symmetry_multiplicity
 _atom_site_fract_x
 _atom_site_fract_y
 _atom_site_fract_z
 _atom_site_occupancy
  Bi3+  Bi0  1  0.00000000  0.00000000  0.94268000  1.0
  Bi3+  Bi1  1  0.00000000  0.00000000  0.05732000  1.0
  Bi3+  Bi2  1  0.50000000  0.50000000  0.44268000  1.0
  Bi3+  Bi3  1  0.50000000  0.50000000  0.55732000  1.0
  Bi3+  Bi4  1  0.00000000  0.00000000  0.79145000  1.0
  Bi3+  Bi5  1  0.00000000  0.00000000  0.20855000  1.0
  Bi3+  Bi6  1  0.50000000  0.50000000  0.29145000  1.0
  Bi3+  Bi7  1  0.50000000  0.50000000  0.70855000  1.0
  Bi3+  Bi8  1  0.00000000  0.00000000  0.61771000  1.0
  Bi3+  Bi9  1  0.00000000  0.00000000  0.38229000  1.0
  Bi3+  Bi10  1  0.50000000  0.50000000  0.11771000  1.0
  Bi3+  Bi11  1  0.50000000  0.50000000  0.88229000  1.0
  S1.33-  S12  1  0.00000000  0.00000000  0.85430000  1.0
  S1.33-  S13  1  0.00000000  0.00000000  0.14570000  1.0
  S1.33-  S14  1  0.50000000  0.50000000  0.35430000  1.0
  S1.33-  S15  1  0.50000000  0.50000000  0.64570000  1.0
  S1.33-  S16  1  0.00000000  0.00000000  0.71560000  1.0
  S1.33-  S17  1  0.00000000  0.00000000  0.28440000  1.0
  S1.33-  S18  1  0.50000000  0.50000000  0.21560000  1.0
  S1.33-  S19  1  0.50000000  0.50000000  0.78440000  1.0
  S1.33-  S20  1  0.00000000  0.00000000  0.49408000  0.25
  S1.33-  S21  1  0.00000000  0.00000000  0.50592000  0.25
  S1.33-  S22  1  0.50000000  0.50000000  0.99408000  0.25
  S1.33-  S23  1  0.50000000  0.50000000  0.00592000  0.25
  O2-  O24  1  0.50000000  0.00000000  0.91550000  1.0
  O2-  O25  1  0.00000000  0.50000000  0.91550000  1.0
  O2-  O26  1  0.50000000  0.00000000  0.08450000  1.0
  O2-  O27  1  0.00000000  0.50000000  0.08450000  1.0
  O2-  O28  1  0.00000000  0.50000000  0.41550000  1.0
  O2-  O29  1  0.50000000  0.00000000  0.41550000  1.0
  O2-  O30  1  0.00000000  0.50000000  0.58450000  1.0
  O2-  O31  1  0.50000000  0.00000000  0.58450000  1.0
  O2-  O32  1  0.00000000  0.35590000  0.51800000  0.0625
  O2-  O33  1  0.00000000  0.64410000  0.51800000  0.0625
  O2-  O34  1  0.64410000  0.00000000  0.51800000  0.0625
  O2-  O35  1  0.35590000  0.00000000  0.51800000  0.0625
  O2-  O36  1  0.00000000  0.64410000  0.48200000  0.0625
  O2-  O37  1  0.00000000  0.35590000  0.48200000  0.0625
  O2-  O38  1  0.35590000  0.00000000  0.48200000  0.0625
  O2-  O39  1  0.64410000  0.00000000  0.48200000  0.0625
  O2-  O40  1  0.50000000  0.85590000  0.01800000  0.0625
  O2-  O41  1  0.50000000  0.14410000  0.01800000  0.0625
  O2-  O42  1  0.14410000  0.50000000  0.01800000  0.0625
  O2-  O43  1  0.85590000  0.50000000  0.01800000  0.0625
  O2-  O44  1  0.50000000  0.14410000  0.98200000  0.0625
  O2-  O45  1  0.50000000  0.85590000  0.98200000  0.0625
  O2-  O46  1  0.85590000  0.50000000  0.98200000  0.0625
  O2-  O47  1  0.14410000  0.50000000  0.98200000  0.0625
  O2-  O48  1  0.30820000  0.17800000  0.51800000  0.0625
  O2-  O49  1  0.69180000  0.82200000  0.51800000  0.0625
  O2-  O50  1  0.69180000  0.17800000  0.51800000  0.0625
  O2-  O51  1  0.30820000  0.82200000  0.51800000  0.0625
  O2-  O52  1  0.82200000  0.30820000  0.51800000  0.0625
  O2-  O53  1  0.17800000  0.69180000  0.51800000  0.0625
  O2-  O54  1  0.17800000  0.30820000  0.51800000  0.0625
  O2-  O55  1  0.82200000  0.69180000  0.51800000  0.0625
  O2-  O56  1  0.69180000  0.82200000  0.48200000  0.0625
  O2-  O57  1  0.30820000  0.17800000  0.48200000  0.0625
  O2-  O58  1  0.30820000  0.82200000  0.48200000  0.0625
  O2-  O59  1  0.69180000  0.17800000  0.48200000  0.0625
  O2-  O60  1  0.17800000  0.69180000  0.48200000  0.0625
  O2-  O61  1  0.82200000  0.30820000  0.48200000  0.0625
  O2-  O62  1  0.82200000  0.69180000  0.48200000  0.0625
  O2-  O63  1  0.17800000  0.30820000  0.48200000  0.0625
  O2-  O64  1  0.80820000  0.67800000  0.01800000  0.0625
  O2-  O65  1  0.19180000  0.32200000  0.01800000  0.0625
  O2-  O66  1  0.19180000  0.67800000  0.01800000  0.0625
  O2-  O67  1  0.80820000  0.32200000  0.01800000  0.0625
  O2-  O68  1  0.32200000  0.80820000  0.01800000  0.0625
  O2-  O69  1  0.67800000  0.19180000  0.01800000  0.0625
  O2-  O70  1  0.67800000  0.80820000  0.01800000  0.0625
  O2-  O71  1  0.32200000  0.19180000  0.01800000  0.0625
  O2-  O72  1  0.19180000  0.32200000  0.98200000  0.0625
  O2-  O73  1  0.80820000  0.67800000  0.98200000  0.0625
  O2-  O74  1  0.80820000  0.32200000  0.98200000  0.0625
  O2-  O75  1  0.19180000  0.67800000  0.98200000  0.0625
  O2-  O76  1  0.67800000  0.19180000  0.98200000  0.0625
  O2-  O77  1  0.32200000  0.80820000  0.98200000  0.0625
  O2-  O78  1  0.32200000  0.19180000  0.98200000  0.0625
  O2-  O79  1  0.67800000  0.80820000  0.98200000  0.0625
  O2-  O80  1  0.00000000  0.00000000  0.53030000  0.25
  O2-  O81  1  0.00000000  0.00000000  0.46970000  0.25
  O2-  O82  1  0.50000000  0.50000000  0.03030000  0.25
  O2-  O83  1  0.50000000  0.50000000  0.96970000  0.25
