# generated using pymatgen
data_NaV6O15
_symmetry_space_group_name_H-M   'P 1'
_cell_length_a   14.45300000
_cell_length_b   3.58440000
_cell_length_c   9.68200000
_cell_angle_alpha   90.00000000
_cell_angle_beta   109.98000000
_cell_angle_gamma   90.00000000
_symmetry_Int_Tables_number   1
_chemical_formula_structural   NaV6O15
_chemical_formula_sum   'Na2 V12 O30'
_cell_volume   471.39016045
_cell_formula_units_Z   2
loop_
 _symmetry_equiv_pos_site_id
 _symmetry_equiv_pos_as_xyz
  1  'x, y, z'
loop_
 _atom_type_symbol
 _atom_type_oxidation_number
  Na+  1.0
  V4.83+  4.83
  O2-  -2.0
loop_
 _atom_site_type_symbol
 _atom_site_label
 _atom_site_symmetry_multiplicity
 _atom_site_fract_x
 _atom_site_fract_y
 _atom_site_fract_z
 _atom_site_occupancy
  Na+  Na0  1  0.00470000  0.00000000  0.59200000  0.5
  Na+  Na1  1  0.99530000  0.00000000  0.40800000  0.5
  Na+  Na2  1  0.50470000  0.50000000  0.59200000  0.5
  Na+  Na3  1  0.49530000  0.50000000  0.40800000  0.5
  V4.83+  V4  1  0.65480000  0.00000000  0.89920000  1.0
  V4.83+  V5  1  0.34520000  0.00000000  0.10080000  1.0
  V4.83+  V6  1  0.15480000  0.50000000  0.89920000  1.0
  V4.83+  V7  1  0.84520000  0.50000000  0.10080000  1.0
  V4.83+  V8  1  0.88020000  0.00000000  0.86990000  1.0
  V4.83+  V9  1  0.11980000  0.00000000  0.13010000  1.0
  V4.83+  V10  1  0.38020000  0.50000000  0.86990000  1.0
  V4.83+  V11  1  0.61980000  0.50000000  0.13010000  1.0
  V4.83+  V12  1  0.70800000  0.00000000  0.58260000  1.0
  V4.83+  V13  1  0.29200000  0.00000000  0.41740000  1.0
  V4.83+  V14  1  0.20800000  0.50000000  0.58260000  1.0
  V4.83+  V15  1  0.79200000  0.50000000  0.41740000  1.0
  O2-  O16  1  0.00000000  0.00000000  0.00000000  1.0
  O2-  O17  1  0.50000000  0.50000000  0.00000000  1.0
  O2-  O18  1  0.18180000  0.00000000  0.94530000  1.0
  O2-  O19  1  0.81820000  0.00000000  0.05470000  1.0
  O2-  O20  1  0.68180000  0.50000000  0.94530000  1.0
  O2-  O21  1  0.31820000  0.50000000  0.05470000  1.0
  O2-  O22  1  0.36380000  0.00000000  0.90980000  1.0
  O2-  O23  1  0.63620000  0.00000000  0.09020000  1.0
  O2-  O24  1  0.86380000  0.50000000  0.90980000  1.0
  O2-  O25  1  0.13620000  0.50000000  0.09020000  1.0
  O2-  O26  1  0.54810000  0.00000000  0.77840000  1.0
  O2-  O27  1  0.45190000  0.00000000  0.22160000  1.0
  O2-  O28  1  0.04810000  0.50000000  0.77840000  1.0
  O2-  O29  1  0.95190000  0.50000000  0.22160000  1.0
  O2-  O30  1  0.73080000  0.00000000  0.77590000  1.0
  O2-  O31  1  0.26920000  0.00000000  0.22410000  1.0
  O2-  O32  1  0.23080000  0.50000000  0.77590000  1.0
  O2-  O33  1  0.76920000  0.50000000  0.22410000  1.0
  O2-  O34  1  0.89190000  0.00000000  0.71110000  1.0
  O2-  O35  1  0.10810000  0.00000000  0.28890000  1.0
  O2-  O36  1  0.39190000  0.50000000  0.71110000  1.0
  O2-  O37  1  0.60810000  0.50000000  0.28890000  1.0
  O2-  O38  1  0.75890000  0.00000000  0.42130000  1.0
  O2-  O39  1  0.24110000  0.00000000  0.57870000  1.0
  O2-  O40  1  0.25890000  0.50000000  0.42130000  1.0
  O2-  O41  1  0.74110000  0.50000000  0.57870000  1.0
  O2-  O42  1  0.58970000  0.00000000  0.51380000  1.0
  O2-  O43  1  0.41030000  0.00000000  0.48620000  1.0
  O2-  O44  1  0.08970000  0.50000000  0.51380000  1.0
  O2-  O45  1  0.91030000  0.50000000  0.48620000  1.0
