# generated using pymatgen
data_Eu2Fe3.44As4Ir0.56
_symmetry_space_group_name_H-M   'P 1'
_cell_length_a   3.92870000
_cell_length_b   3.92870000
_cell_length_c   11.88400000
_cell_angle_alpha   90.00000000
_cell_angle_beta   90.00000000
_cell_angle_gamma   90.00000000
_symmetry_Int_Tables_number   1
_chemical_formula_structural   Eu2Fe3.44As4Ir0.56
_chemical_formula_sum   'Eu2 Fe3.44 As4 Ir0.56'
_cell_volume   183.42578097
_cell_formula_units_Z   1
loop_
 _symmetry_equiv_pos_site_id
 _symmetry_equiv_pos_as_xyz
  1  'x, y, z'
loop_
 _atom_type_symbol
 _atom_type_oxidation_number
  Eu2+  2.0
  Fe2+  2.0
  As3-  -3.0
  Ir3+  3.0
loop_
 _atom_site_type_symbol
 _atom_site_label
 _atom_site_symmetry_multiplicity
 _atom_site_fract_x
 _atom_site_fract_y
 _atom_site_fract_z
 _atom_site_occupancy
  Eu2+  Eu0  1  0.00000000  0.00000000  0.00000000  1.0
  Eu2+  Eu1  1  0.50000000  0.50000000  0.50000000  1.0
  Fe2+  Fe2  1  0.50000000  0.00000000  0.75000000  0.86
  Ir3+  Ir3  1  0.50000000  0.00000000  0.75000000  0.14
  Fe2+  Fe4  1  0.00000000  0.50000000  0.75000000  0.86
  Ir3+  Ir5  1  0.00000000  0.50000000  0.75000000  0.14
  Fe2+  Fe6  1  0.50000000  0.00000000  0.25000000  0.86
  Ir3+  Ir7  1  0.50000000  0.00000000  0.25000000  0.14
  Fe2+  Fe8  1  0.00000000  0.50000000  0.25000000  0.86
  Ir3+  Ir9  1  0.00000000  0.50000000  0.25000000  0.14
  As3-  As10  1  0.00000000  0.00000000  0.63960000  1.0
  As3-  As11  1  0.00000000  0.00000000  0.36040000  1.0
  As3-  As12  1  0.50000000  0.50000000  0.13960000  1.0
  As3-  As13  1  0.50000000  0.50000000  0.86040000  1.0
