# generated using pymatgen
data_Te8Ir3
_symmetry_space_group_name_H-M   'P 1'
_cell_length_a   6.41400000
_cell_length_b   6.41400000
_cell_length_c   6.41400000
_cell_angle_alpha   90.00000000
_cell_angle_beta   90.00000000
_cell_angle_gamma   90.00000000
_symmetry_Int_Tables_number   1
_chemical_formula_structural   Te8Ir3
_chemical_formula_sum   'Te8 Ir3'
_cell_volume   263.86808594
_cell_formula_units_Z   1
loop_
 _symmetry_equiv_pos_site_id
 _symmetry_equiv_pos_as_xyz
  1  'x, y, z'
loop_
 _atom_type_symbol
 _atom_type_oxidation_number
  Te0+  0.0
  Ir0+  0.0
loop_
 _atom_site_type_symbol
 _atom_site_label
 _atom_site_symmetry_multiplicity
 _atom_site_fract_x
 _atom_site_fract_y
 _atom_site_fract_z
 _atom_site_occupancy
  Te0+  Te0  1  0.12980000  0.87020000  0.37020000  1.0
  Te0+  Te1  1  0.87020000  0.37020000  0.12980000  1.0
  Te0+  Te2  1  0.37020000  0.12980000  0.87020000  1.0
  Te0+  Te3  1  0.62980000  0.62980000  0.62980000  1.0
  Te0+  Te4  1  0.87020000  0.12980000  0.62980000  1.0
  Te0+  Te5  1  0.12980000  0.62980000  0.87020000  1.0
  Te0+  Te6  1  0.62980000  0.87020000  0.12980000  1.0
  Te0+  Te7  1  0.37020000  0.37020000  0.37020000  1.0
  Ir0+  Ir8  1  0.50000000  0.50000000  0.00000000  0.75
  Ir0+  Ir9  1  0.50000000  0.00000000  0.50000000  0.75
  Ir0+  Ir10  1  0.00000000  0.50000000  0.50000000  0.75
  Ir0+  Ir11  1  0.00000000  0.00000000  0.00000000  0.75
