# generated using pymatgen
data_Tb0.4Er1.6Ni4B4C2
_symmetry_space_group_name_H-M   'P 1'
_cell_length_a   3.51100000
_cell_length_b   3.51100000
_cell_length_c   10.56000000
_cell_angle_alpha   90.00000000
_cell_angle_beta   90.00000000
_cell_angle_gamma   90.00000000
_symmetry_Int_Tables_number   1
_chemical_formula_structural   Tb0.4Er1.6Ni4B4C2
_chemical_formula_sum   'Tb0.4 Er1.6 Ni4 B4 C2'
_cell_volume   130.17439776
_cell_formula_units_Z   1
loop_
 _symmetry_equiv_pos_site_id
 _symmetry_equiv_pos_as_xyz
  1  'x, y, z'
loop_
 _atom_type_symbol
 _atom_type_oxidation_number
  Tb3+  3.0
  Er3+  3.0
  Ni2+  2.0
  B2-  -2.0
  C3-  -3.0
loop_
 _atom_site_type_symbol
 _atom_site_label
 _atom_site_symmetry_multiplicity
 _atom_site_fract_x
 _atom_site_fract_y
 _atom_site_fract_z
 _atom_site_occupancy
  Tb3+  Tb0  1  0.00000000  0.00000000  0.00000000  0.2
  Er3+  Er1  1  0.00000000  0.00000000  0.00000000  0.8
  Tb3+  Tb2  1  0.50000000  0.50000000  0.50000000  0.2
  Er3+  Er3  1  0.50000000  0.50000000  0.50000000  0.8
  Ni2+  Ni4  1  0.00000000  0.50000000  0.75000000  1.0
  Ni2+  Ni5  1  0.50000000  0.00000000  0.75000000  1.0
  Ni2+  Ni6  1  0.00000000  0.50000000  0.25000000  1.0
  Ni2+  Ni7  1  0.50000000  0.00000000  0.25000000  1.0
  B2-  B8  1  0.00000000  0.00000000  0.63900000  1.0
  B2-  B9  1  0.00000000  0.00000000  0.36100000  1.0
  B2-  B10  1  0.50000000  0.50000000  0.13900000  1.0
  B2-  B11  1  0.50000000  0.50000000  0.86100000  1.0
  C3-  C12  1  0.00000000  0.00000000  0.50000000  1.0
  C3-  C13  1  0.50000000  0.50000000  0.00000000  1.0
