# generated using pymatgen
data_Er1.6Lu0.4Ni4B4C2
_symmetry_space_group_name_H-M   'P 1'
_cell_length_a   3.49700000
_cell_length_b   3.49700000
_cell_length_c   10.60100000
_cell_angle_alpha   90.00000000
_cell_angle_beta   90.00000000
_cell_angle_gamma   90.00000000
_symmetry_Int_Tables_number   1
_chemical_formula_structural   Er1.6Lu0.4Ni4B4C2
_chemical_formula_sum   'Er1.6 Lu0.4 Ni4 B4 C2'
_cell_volume   129.63972441
_cell_formula_units_Z   1
loop_
 _symmetry_equiv_pos_site_id
 _symmetry_equiv_pos_as_xyz
  1  'x, y, z'
loop_
 _atom_type_symbol
 _atom_type_oxidation_number
  Er3+  3.0
  Lu3+  3.0
  Ni2+  2.0
  B2-  -2.0
  C3-  -3.0
loop_
 _atom_site_type_symbol
 _atom_site_label
 _atom_site_symmetry_multiplicity
 _atom_site_fract_x
 _atom_site_fract_y
 _atom_site_fract_z
 _atom_site_occupancy
  Er3+  Er0  1  0.00000000  0.00000000  0.00000000  0.8
  Lu3+  Lu1  1  0.00000000  0.00000000  0.00000000  0.2
  Er3+  Er2  1  0.50000000  0.50000000  0.50000000  0.8
  Lu3+  Lu3  1  0.50000000  0.50000000  0.50000000  0.2
  Ni2+  Ni4  1  0.00000000  0.50000000  0.75000000  1.0
  Ni2+  Ni5  1  0.50000000  0.00000000  0.75000000  1.0
  Ni2+  Ni6  1  0.00000000  0.50000000  0.25000000  1.0
  Ni2+  Ni7  1  0.50000000  0.00000000  0.25000000  1.0
  B2-  B8  1  0.00000000  0.00000000  0.63900000  1.0
  B2-  B9  1  0.00000000  0.00000000  0.36100000  1.0
  B2-  B10  1  0.50000000  0.50000000  0.13900000  1.0
  B2-  B11  1  0.50000000  0.50000000  0.86100000  1.0
  C3-  C12  1  0.00000000  0.00000000  0.50000000  1.0
  C3-  C13  1  0.50000000  0.50000000  0.00000000  1.0
