# generated using pymatgen
data_Er2Co0.2Ni3.8B4C2
_symmetry_space_group_name_H-M   'P 1'
_cell_length_a   3.50100000
_cell_length_b   3.50100000
_cell_length_c   10.57400000
_cell_angle_alpha   90.00000000
_cell_angle_beta   90.00000000
_cell_angle_gamma   90.00000000
_symmetry_Int_Tables_number   1
_chemical_formula_structural   Er2Co0.2Ni3.8B4C2
_chemical_formula_sum   'Er2 Co0.2 Ni3.8 B4 C2'
_cell_volume   129.60552857
_cell_formula_units_Z   1
loop_
 _symmetry_equiv_pos_site_id
 _symmetry_equiv_pos_as_xyz
  1  'x, y, z'
loop_
 _atom_type_symbol
 _atom_type_oxidation_number
  Er3+  3.0
  Co2+  2.0
  Ni2+  2.0
  B2-  -2.0
  C3-  -3.0
loop_
 _atom_site_type_symbol
 _atom_site_label
 _atom_site_symmetry_multiplicity
 _atom_site_fract_x
 _atom_site_fract_y
 _atom_site_fract_z
 _atom_site_occupancy
  Er3+  Er0  1  0.00000000  0.00000000  0.00000000  1.0
  Er3+  Er1  1  0.50000000  0.50000000  0.50000000  1.0
  Co2+  Co2  1  0.00000000  0.50000000  0.75000000  0.05
  Ni2+  Ni3  1  0.00000000  0.50000000  0.75000000  0.95
  Co2+  Co4  1  0.50000000  0.00000000  0.75000000  0.05
  Ni2+  Ni5  1  0.50000000  0.00000000  0.75000000  0.95
  Co2+  Co6  1  0.00000000  0.50000000  0.25000000  0.05
  Ni2+  Ni7  1  0.00000000  0.50000000  0.25000000  0.95
  Co2+  Co8  1  0.50000000  0.00000000  0.25000000  0.05
  Ni2+  Ni9  1  0.50000000  0.00000000  0.25000000  0.95
  B2-  B10  1  0.00000000  0.00000000  0.63900000  1.0
  B2-  B11  1  0.00000000  0.00000000  0.36100000  1.0
  B2-  B12  1  0.50000000  0.50000000  0.13900000  1.0
  B2-  B13  1  0.50000000  0.50000000  0.86100000  1.0
  C3-  C14  1  0.00000000  0.00000000  0.50000000  1.0
  C3-  C15  1  0.50000000  0.50000000  0.00000000  1.0
