# generated using pymatgen
data_Fe2.07Te1.56Se0.44
_symmetry_space_group_name_H-M   'P 1'
_cell_length_a   3.80600000
_cell_length_b   3.80600000
_cell_length_c   6.18700000
_cell_angle_alpha   90.00000000
_cell_angle_beta   90.00000000
_cell_angle_gamma   90.00000000
_symmetry_Int_Tables_number   1
_chemical_formula_structural   Fe2.07Te1.56Se0.44
_chemical_formula_sum   'Fe2.07 Te1.56 Se0.44'
_cell_volume   89.62262993
_cell_formula_units_Z   1
loop_
 _symmetry_equiv_pos_site_id
 _symmetry_equiv_pos_as_xyz
  1  'x, y, z'
loop_
 _atom_type_symbol
 _atom_type_oxidation_number
  Fe0+  0.0
  Te0+  0.0
  Se0+  0.0
loop_
 _atom_site_type_symbol
 _atom_site_label
 _atom_site_symmetry_multiplicity
 _atom_site_fract_x
 _atom_site_fract_y
 _atom_site_fract_z
 _atom_site_occupancy
  Fe0+  Fe0  1  0.75000000  0.25000000  0.00000000  1.0
  Fe0+  Fe1  1  0.25000000  0.75000000  0.00000000  1.0
  Fe0+  Fe2  1  0.75000000  0.75000000  0.30000000  0.035
  Fe0+  Fe3  1  0.25000000  0.25000000  0.70000000  0.035
  Te0+  Te4  1  0.75000000  0.75000000  0.72210000  0.78
  Se0+  Se5  1  0.75000000  0.75000000  0.72210000  0.22
  Te0+  Te6  1  0.25000000  0.25000000  0.27790000  0.78
  Se0+  Se7  1  0.25000000  0.25000000  0.27790000  0.22
