# generated using pymatgen
data_La2Bi2S4OF
_symmetry_space_group_name_H-M   'P 1'
_cell_length_a   4.07180000
_cell_length_b   4.07180000
_cell_length_c   13.37800000
_cell_angle_alpha   90.00000000
_cell_angle_beta   90.00000000
_cell_angle_gamma   90.00000000
_symmetry_Int_Tables_number   1
_chemical_formula_structural   La2Bi2S4OF
_chemical_formula_sum   'La2 Bi2 S4 O1 F1'
_cell_volume   221.80129000
_cell_formula_units_Z   1
loop_
 _symmetry_equiv_pos_site_id
 _symmetry_equiv_pos_as_xyz
  1  'x, y, z'
loop_
 _atom_type_symbol
 _atom_type_oxidation_number
  La3+  3.0
  Bi2.5+  2.5
  S2-  -2.0
  O2-  -2.0
  F-  -1.0
loop_
 _atom_site_type_symbol
 _atom_site_label
 _atom_site_symmetry_multiplicity
 _atom_site_fract_x
 _atom_site_fract_y
 _atom_site_fract_z
 _atom_site_occupancy
  La3+  La0  1  0.50000000  0.00000000  0.10050000  1.0
  La3+  La1  1  0.00000000  0.50000000  0.89950000  1.0
  Bi2.5+  Bi2  1  0.50000000  0.00000000  0.62180000  1.0
  Bi2.5+  Bi3  1  0.00000000  0.50000000  0.37820000  1.0
  S2-  S4  1  0.50000000  0.00000000  0.37500000  1.0
  S2-  S5  1  0.00000000  0.50000000  0.62500000  1.0
  S2-  S6  1  0.50000000  0.00000000  0.81110000  1.0
  S2-  S7  1  0.00000000  0.50000000  0.18890000  1.0
  O2-  O8  1  0.50000000  0.50000000  0.00000000  0.5
  F-  F9  1  0.50000000  0.50000000  0.00000000  0.5
  O2-  O10  1  0.00000000  0.00000000  0.00000000  0.5
  F-  F11  1  0.00000000  0.00000000  0.00000000  0.5
