# generated using pymatgen
data_Ca8Al5.92Si10.08
_symmetry_space_group_name_H-M   'P 1'
_cell_length_a   7.75400000
_cell_length_b   7.75400000
_cell_length_c   7.75400000
_cell_angle_alpha   90.00000000
_cell_angle_beta   90.00000000
_cell_angle_gamma   90.00000000
_symmetry_Int_Tables_number   1
_chemical_formula_structural   Ca8Al5.92Si10.08
_chemical_formula_sum   'Ca8 Al5.92 Si10.08'
_cell_volume   466.20549706
_cell_formula_units_Z   1
loop_
 _symmetry_equiv_pos_site_id
 _symmetry_equiv_pos_as_xyz
  1  'x, y, z'
loop_
 _atom_type_symbol
 _atom_type_oxidation_number
  Ca0+  0.0
  Al0+  0.0
  Si0+  0.0
loop_
 _atom_site_type_symbol
 _atom_site_label
 _atom_site_symmetry_multiplicity
 _atom_site_fract_x
 _atom_site_fract_y
 _atom_site_fract_z
 _atom_site_occupancy
  Ca0+  Ca0  1  0.87500000  0.87500000  0.37500000  1.0
  Ca0+  Ca1  1  0.87500000  0.37500000  0.87500000  1.0
  Ca0+  Ca2  1  0.37500000  0.87500000  0.87500000  1.0
  Ca0+  Ca3  1  0.12500000  0.12500000  0.62500000  1.0
  Ca0+  Ca4  1  0.12500000  0.62500000  0.12500000  1.0
  Ca0+  Ca5  1  0.62500000  0.12500000  0.12500000  1.0
  Ca0+  Ca6  1  0.37500000  0.37500000  0.37500000  1.0
  Ca0+  Ca7  1  0.62500000  0.62500000  0.62500000  1.0
  Al0+  Al8  1  0.00000000  0.25000000  0.25000000  0.37
  Si0+  Si9  1  0.00000000  0.25000000  0.25000000  0.63
  Al0+  Al10  1  0.75000000  0.50000000  0.25000000  0.37
  Si0+  Si11  1  0.75000000  0.50000000  0.25000000  0.63
  Al0+  Al12  1  0.75000000  0.25000000  0.50000000  0.37
  Si0+  Si13  1  0.75000000  0.25000000  0.50000000  0.63
  Al0+  Al14  1  0.00000000  0.50000000  0.50000000  0.37
  Si0+  Si15  1  0.00000000  0.50000000  0.50000000  0.63
  Al0+  Al16  1  0.25000000  0.25000000  0.00000000  0.37
  Si0+  Si17  1  0.25000000  0.25000000  0.00000000  0.63
  Al0+  Al18  1  0.50000000  0.25000000  0.75000000  0.37
  Si0+  Si19  1  0.50000000  0.25000000  0.75000000  0.63
  Al0+  Al20  1  0.25000000  0.50000000  0.75000000  0.37
  Si0+  Si21  1  0.25000000  0.50000000  0.75000000  0.63
  Al0+  Al22  1  0.50000000  0.50000000  0.00000000  0.37
  Si0+  Si23  1  0.50000000  0.50000000  0.00000000  0.63
  Al0+  Al24  1  0.25000000  0.00000000  0.25000000  0.37
  Si0+  Si25  1  0.25000000  0.00000000  0.25000000  0.63
  Al0+  Al26  1  0.25000000  0.75000000  0.50000000  0.37
  Si0+  Si27  1  0.25000000  0.75000000  0.50000000  0.63
  Al0+  Al28  1  0.50000000  0.75000000  0.25000000  0.37
  Si0+  Si29  1  0.50000000  0.75000000  0.25000000  0.63
  Al0+  Al30  1  0.50000000  0.00000000  0.50000000  0.37
  Si0+  Si31  1  0.50000000  0.00000000  0.50000000  0.63
  Al0+  Al32  1  0.00000000  0.75000000  0.75000000  0.37
  Si0+  Si33  1  0.00000000  0.75000000  0.75000000  0.63
  Al0+  Al34  1  0.75000000  0.75000000  0.00000000  0.37
  Si0+  Si35  1  0.75000000  0.75000000  0.00000000  0.63
  Al0+  Al36  1  0.75000000  0.00000000  0.75000000  0.37
  Si0+  Si37  1  0.75000000  0.00000000  0.75000000  0.63
  Al0+  Al38  1  0.00000000  0.00000000  0.00000000  0.37
  Si0+  Si39  1  0.00000000  0.00000000  0.00000000  0.63
