# generated using pymatgen
data_Ba8Ga15.9988Ge29.9966
_symmetry_space_group_name_H-M   'P 1'
_cell_length_a   10.78500000
_cell_length_b   10.78500000
_cell_length_c   10.78500000
_cell_angle_alpha   90.00000000
_cell_angle_beta   90.00000000
_cell_angle_gamma   90.00000000
_symmetry_Int_Tables_number   1
_chemical_formula_structural   Ba8Ga15.9988Ge29.9966
_chemical_formula_sum   'Ba8 Ga15.9988 Ge29.9966'
_cell_volume   1254.47048663
_cell_formula_units_Z   1
loop_
 _symmetry_equiv_pos_site_id
 _symmetry_equiv_pos_as_xyz
  1  'x, y, z'
loop_
 _atom_type_symbol
 _atom_type_oxidation_number
  Ba0+  0.0
  Ga0+  0.0
  Ge0+  0.0
loop_
 _atom_site_type_symbol
 _atom_site_label
 _atom_site_symmetry_multiplicity
 _atom_site_fract_x
 _atom_site_fract_y
 _atom_site_fract_z
 _atom_site_occupancy
  Ba0+  Ba0  1  0.50000000  0.50000000  0.50000000  1.0
  Ba0+  Ba1  1  0.00000000  0.00000000  0.00000000  1.0
  Ba0+  Ba2  1  0.00000000  0.25000000  0.50000000  1.0
  Ba0+  Ba3  1  0.75000000  0.50000000  0.00000000  1.0
  Ba0+  Ba4  1  0.50000000  0.00000000  0.75000000  1.0
  Ba0+  Ba5  1  0.00000000  0.75000000  0.50000000  1.0
  Ba0+  Ba6  1  0.25000000  0.50000000  0.00000000  1.0
  Ba0+  Ba7  1  0.50000000  0.00000000  0.25000000  1.0
  Ga0+  Ga8  1  0.00000000  0.50000000  0.75000000  0.3478
  Ge0+  Ge9  1  0.00000000  0.50000000  0.75000000  0.6521
  Ga0+  Ga10  1  0.50000000  0.25000000  0.00000000  0.3478
  Ge0+  Ge11  1  0.50000000  0.25000000  0.00000000  0.6521
  Ga0+  Ga12  1  0.75000000  0.00000000  0.50000000  0.3478
  Ge0+  Ge13  1  0.75000000  0.00000000  0.50000000  0.6521
  Ga0+  Ga14  1  0.00000000  0.50000000  0.25000000  0.3478
  Ge0+  Ge15  1  0.00000000  0.50000000  0.25000000  0.6521
  Ga0+  Ga16  1  0.50000000  0.75000000  0.00000000  0.3478
  Ge0+  Ge17  1  0.50000000  0.75000000  0.00000000  0.6521
  Ga0+  Ga18  1  0.25000000  0.00000000  0.50000000  0.3478
  Ge0+  Ge19  1  0.25000000  0.00000000  0.50000000  0.6521
  Ga0+  Ga20  1  0.68440000  0.31560000  0.68440000  0.3478
  Ge0+  Ge21  1  0.68440000  0.31560000  0.68440000  0.6521
  Ga0+  Ga22  1  0.31560000  0.68440000  0.31560000  0.3478
  Ge0+  Ge23  1  0.31560000  0.68440000  0.31560000  0.6521
  Ga0+  Ga24  1  0.68440000  0.68440000  0.31560000  0.3478
  Ge0+  Ge25  1  0.68440000  0.68440000  0.31560000  0.6521
  Ga0+  Ga26  1  0.31560000  0.31560000  0.68440000  0.3478
  Ge0+  Ge27  1  0.31560000  0.31560000  0.68440000  0.6521
  Ga0+  Ga28  1  0.31560000  0.68440000  0.68440000  0.3478
  Ge0+  Ge29  1  0.31560000  0.68440000  0.68440000  0.6521
  Ga0+  Ga30  1  0.68440000  0.31560000  0.31560000  0.3478
  Ge0+  Ge31  1  0.68440000  0.31560000  0.31560000  0.6521
  Ga0+  Ga32  1  0.31560000  0.31560000  0.31560000  0.3478
  Ge0+  Ge33  1  0.31560000  0.31560000  0.31560000  0.6521
  Ga0+  Ga34  1  0.68440000  0.68440000  0.68440000  0.3478
  Ge0+  Ge35  1  0.68440000  0.68440000  0.68440000  0.6521
  Ga0+  Ga36  1  0.18440000  0.18440000  0.81560000  0.3478
  Ge0+  Ge37  1  0.18440000  0.18440000  0.81560000  0.6521
  Ga0+  Ga38  1  0.81560000  0.81560000  0.18440000  0.3478
  Ge0+  Ge39  1  0.81560000  0.81560000  0.18440000  0.6521
  Ga0+  Ga40  1  0.18440000  0.81560000  0.18440000  0.3478
  Ge0+  Ge41  1  0.18440000  0.81560000  0.18440000  0.6521
  Ga0+  Ga42  1  0.81560000  0.18440000  0.81560000  0.3478
  Ge0+  Ge43  1  0.81560000  0.18440000  0.81560000  0.6521
  Ga0+  Ga44  1  0.81560000  0.18440000  0.18440000  0.3478
  Ge0+  Ge45  1  0.81560000  0.18440000  0.18440000  0.6521
  Ga0+  Ga46  1  0.18440000  0.81560000  0.81560000  0.3478
  Ge0+  Ge47  1  0.18440000  0.81560000  0.81560000  0.6521
  Ga0+  Ga48  1  0.81560000  0.81560000  0.81560000  0.3478
  Ge0+  Ge49  1  0.81560000  0.81560000  0.81560000  0.6521
  Ga0+  Ga50  1  0.18440000  0.18440000  0.18440000  0.3478
  Ge0+  Ge51  1  0.18440000  0.18440000  0.18440000  0.6521
  Ga0+  Ga52  1  0.61810000  0.19170000  0.50000000  0.3478
  Ge0+  Ge53  1  0.61810000  0.19170000  0.50000000  0.6521
  Ga0+  Ga54  1  0.80830000  0.50000000  0.61810000  0.3478
  Ge0+  Ge55  1  0.80830000  0.50000000  0.61810000  0.6521
  Ga0+  Ga56  1  0.50000000  0.38190000  0.80830000  0.3478
  Ge0+  Ge57  1  0.50000000  0.38190000  0.80830000  0.6521
  Ga0+  Ga58  1  0.38190000  0.80830000  0.50000000  0.3478
  Ge0+  Ge59  1  0.38190000  0.80830000  0.50000000  0.6521
  Ga0+  Ga60  1  0.19170000  0.50000000  0.38190000  0.3478
  Ge0+  Ge61  1  0.19170000  0.50000000  0.38190000  0.6521
  Ga0+  Ga62  1  0.50000000  0.61810000  0.19170000  0.3478
  Ge0+  Ge63  1  0.50000000  0.61810000  0.19170000  0.6521
  Ga0+  Ga64  1  0.61810000  0.80830000  0.50000000  0.3478
  Ge0+  Ge65  1  0.61810000  0.80830000  0.50000000  0.6521
  Ga0+  Ga66  1  0.80830000  0.50000000  0.38190000  0.3478
  Ge0+  Ge67  1  0.80830000  0.50000000  0.38190000  0.6521
  Ga0+  Ga68  1  0.38190000  0.19170000  0.50000000  0.3478
  Ge0+  Ge69  1  0.38190000  0.19170000  0.50000000  0.6521
  Ga0+  Ga70  1  0.19170000  0.50000000  0.61810000  0.3478
  Ge0+  Ge71  1  0.19170000  0.50000000  0.61810000  0.6521
  Ga0+  Ga72  1  0.50000000  0.61810000  0.80830000  0.3478
  Ge0+  Ge73  1  0.50000000  0.61810000  0.80830000  0.6521
  Ga0+  Ga74  1  0.50000000  0.38190000  0.19170000  0.3478
  Ge0+  Ge75  1  0.50000000  0.38190000  0.19170000  0.6521
  Ga0+  Ga76  1  0.11810000  0.00000000  0.69170000  0.3478
  Ge0+  Ge77  1  0.11810000  0.00000000  0.69170000  0.6521
  Ga0+  Ga78  1  0.30830000  0.11810000  0.00000000  0.3478
  Ge0+  Ge79  1  0.30830000  0.11810000  0.00000000  0.6521
  Ga0+  Ga80  1  0.00000000  0.30830000  0.88190000  0.3478
  Ge0+  Ge81  1  0.00000000  0.30830000  0.88190000  0.6521
  Ga0+  Ga82  1  0.88190000  0.00000000  0.30830000  0.3478
  Ge0+  Ge83  1  0.88190000  0.00000000  0.30830000  0.6521
  Ga0+  Ga84  1  0.69170000  0.88190000  0.00000000  0.3478
  Ge0+  Ge85  1  0.69170000  0.88190000  0.00000000  0.6521
  Ga0+  Ga86  1  0.00000000  0.69170000  0.11810000  0.3478
  Ge0+  Ge87  1  0.00000000  0.69170000  0.11810000  0.6521
  Ga0+  Ga88  1  0.11810000  0.00000000  0.30830000  0.3478
  Ge0+  Ge89  1  0.11810000  0.00000000  0.30830000  0.6521
  Ga0+  Ga90  1  0.30830000  0.88190000  0.00000000  0.3478
  Ge0+  Ge91  1  0.30830000  0.88190000  0.00000000  0.6521
  Ga0+  Ga92  1  0.88190000  0.00000000  0.69170000  0.3478
  Ge0+  Ge93  1  0.88190000  0.00000000  0.69170000  0.6521
  Ga0+  Ga94  1  0.69170000  0.11810000  0.00000000  0.3478
  Ge0+  Ge95  1  0.69170000  0.11810000  0.00000000  0.6521
  Ga0+  Ga96  1  0.00000000  0.30830000  0.11810000  0.3478
  Ge0+  Ge97  1  0.00000000  0.30830000  0.11810000  0.6521
  Ga0+  Ga98  1  0.00000000  0.69170000  0.88190000  0.3478
  Ge0+  Ge99  1  0.00000000  0.69170000  0.88190000  0.6521
