# generated using pymatgen
data_TaTi2Nb
_symmetry_space_group_name_H-M   'P 1'
_cell_length_a   3.21100000
_cell_length_b   4.73100000
_cell_length_c   4.63200000
_cell_angle_alpha   90.00000000
_cell_angle_beta   90.00000000
_cell_angle_gamma   90.00000000
_symmetry_Int_Tables_number   1
_chemical_formula_structural   TaTi2Nb
_chemical_formula_sum   'Ta1 Ti2 Nb1'
_cell_volume   70.36582831
_cell_formula_units_Z   1
loop_
 _symmetry_equiv_pos_site_id
 _symmetry_equiv_pos_as_xyz
  1  'x, y, z'
loop_
 _atom_type_symbol
 _atom_type_oxidation_number
  Ta0+  0.0
  Ti0+  0.0
  Nb0+  0.0
loop_
 _atom_site_type_symbol
 _atom_site_label
 _atom_site_symmetry_multiplicity
 _atom_site_fract_x
 _atom_site_fract_y
 _atom_site_fract_z
 _atom_site_occupancy
  Ta0+  Ta0  1  0.00000000  0.18000000  0.25000000  0.25
  Ti0+  Ti1  1  0.00000000  0.18000000  0.25000000  0.5
  Nb0+  Nb2  1  0.00000000  0.18000000  0.25000000  0.25
  Ta0+  Ta3  1  0.00000000  0.82000000  0.75000000  0.25
  Ti0+  Ti4  1  0.00000000  0.82000000  0.75000000  0.5
  Nb0+  Nb5  1  0.00000000  0.82000000  0.75000000  0.25
  Ta0+  Ta6  1  0.50000000  0.68000000  0.25000000  0.25
  Ti0+  Ti7  1  0.50000000  0.68000000  0.25000000  0.5
  Nb0+  Nb8  1  0.50000000  0.68000000  0.25000000  0.25
  Ta0+  Ta9  1  0.50000000  0.32000000  0.75000000  0.25
  Ti0+  Ti10  1  0.50000000  0.32000000  0.75000000  0.5
  Nb0+  Nb11  1  0.50000000  0.32000000  0.75000000  0.25
