# generated using pymatgen
data_Ag7.968Pd11.952S4
_symmetry_space_group_name_H-M   'P 1'
_cell_length_a   7.24700000
_cell_length_b   7.24700000
_cell_length_c   7.24700000
_cell_angle_alpha   90.00000000
_cell_angle_beta   90.00000000
_cell_angle_gamma   90.00000000
_symmetry_Int_Tables_number   1
_chemical_formula_structural   Ag7.968Pd11.952S4
_chemical_formula_sum   'Ag7.968 Pd11.952 S4'
_cell_volume   380.60525822
_cell_formula_units_Z   1
loop_
 _symmetry_equiv_pos_site_id
 _symmetry_equiv_pos_as_xyz
  1  'x, y, z'
loop_
 _atom_type_symbol
 _atom_type_oxidation_number
  Ag0+  0.0
  Pd0+  0.0
  S0+  0.0
loop_
 _atom_site_type_symbol
 _atom_site_label
 _atom_site_symmetry_multiplicity
 _atom_site_fract_x
 _atom_site_fract_y
 _atom_site_fract_z
 _atom_site_occupancy
  Ag0+  Ag0  1  0.19249000  0.30751000  0.69249000  0.996
  Ag0+  Ag1  1  0.80751000  0.80751000  0.80751000  0.996
  Ag0+  Ag2  1  0.30751000  0.69249000  0.19249000  0.996
  Ag0+  Ag3  1  0.69249000  0.19249000  0.30751000  0.996
  Ag0+  Ag4  1  0.94249000  0.05751000  0.55751000  0.996
  Ag0+  Ag5  1  0.44249000  0.44249000  0.44249000  0.996
  Ag0+  Ag6  1  0.05751000  0.55751000  0.94249000  0.996
  Ag0+  Ag7  1  0.55751000  0.94249000  0.05751000  0.996
  Pd0+  Pd8  1  0.80544000  0.44456000  0.62500000  0.996
  Pd0+  Pd9  1  0.19456000  0.94456000  0.87500000  0.996
  Pd0+  Pd10  1  0.94456000  0.87500000  0.19456000  0.996
  Pd0+  Pd11  1  0.05544000  0.37500000  0.30544000  0.996
  Pd0+  Pd12  1  0.37500000  0.30544000  0.05544000  0.996
  Pd0+  Pd13  1  0.62500000  0.80544000  0.44456000  0.996
  Pd0+  Pd14  1  0.30544000  0.05544000  0.37500000  0.996
  Pd0+  Pd15  1  0.69456000  0.55544000  0.12500000  0.996
  Pd0+  Pd16  1  0.44456000  0.62500000  0.80544000  0.996
  Pd0+  Pd17  1  0.55544000  0.12500000  0.69456000  0.996
  Pd0+  Pd18  1  0.87500000  0.19456000  0.94456000  0.996
  Pd0+  Pd19  1  0.12500000  0.69456000  0.55544000  0.996
  S0+  S20  1  0.87500000  0.62500000  0.37500000  1.0
  S0+  S21  1  0.12500000  0.12500000  0.12500000  1.0
  S0+  S22  1  0.62500000  0.37500000  0.87500000  1.0
  S0+  S23  1  0.37500000  0.87500000  0.62500000  1.0
