# generated using pymatgen
data_Sm2Fe1.7As2Ir0.3O2
_symmetry_space_group_name_H-M   'P 1'
_cell_length_a   3.95700000
_cell_length_b   3.95700000
_cell_length_c   8.45440000
_cell_angle_alpha   90.00000000
_cell_angle_beta   90.00000000
_cell_angle_gamma   90.00000000
_symmetry_Int_Tables_number   1
_chemical_formula_structural   Sm2Fe1.7As2Ir0.3O2
_chemical_formula_sum   'Sm2 Fe1.7 As2 Ir0.3 O2'
_cell_volume   132.37771859
_cell_formula_units_Z   1
loop_
 _symmetry_equiv_pos_site_id
 _symmetry_equiv_pos_as_xyz
  1  'x, y, z'
loop_
 _atom_type_symbol
 _atom_type_oxidation_number
  Sm3+  3.0
  Fe2+  2.0
  As3-  -3.0
  Ir2+  2.0
  O2-  -2.0
loop_
 _atom_site_type_symbol
 _atom_site_label
 _atom_site_symmetry_multiplicity
 _atom_site_fract_x
 _atom_site_fract_y
 _atom_site_fract_z
 _atom_site_occupancy
  Sm3+  Sm0  1  0.75000000  0.75000000  0.86210000  1.0
  Sm3+  Sm1  1  0.25000000  0.25000000  0.13790000  1.0
  Fe2+  Fe2  1  0.75000000  0.25000000  0.50000000  0.85
  Ir2+  Ir3  1  0.75000000  0.25000000  0.50000000  0.15
  Fe2+  Fe4  1  0.25000000  0.75000000  0.50000000  0.85
  Ir2+  Ir5  1  0.25000000  0.75000000  0.50000000  0.15
  As3-  As6  1  0.75000000  0.75000000  0.34060000  1.0
  As3-  As7  1  0.25000000  0.25000000  0.65940000  1.0
  O2-  O8  1  0.75000000  0.25000000  0.00000000  1.0
  O2-  O9  1  0.25000000  0.75000000  0.00000000  1.0
