# generated using pymatgen
data_In6.64Mo30Se38
_symmetry_space_group_name_H-M   'P 1'
_cell_length_a   9.83000000
_cell_length_b   9.83000000
_cell_length_c   19.40000000
_cell_angle_alpha   90.00000000
_cell_angle_beta   90.00000000
_cell_angle_gamma   120.00000000
_symmetry_Int_Tables_number   1
_chemical_formula_structural   In6.64Mo30Se38
_chemical_formula_sum   'In6.64 Mo30 Se38'
_cell_volume   1623.45179351
_cell_formula_units_Z   1
loop_
 _symmetry_equiv_pos_site_id
 _symmetry_equiv_pos_as_xyz
  1  'x, y, z'
loop_
 _atom_type_symbol
 _atom_type_oxidation_number
  In0+  0.0
  Mo0+  0.0
  Se0+  0.0
loop_
 _atom_site_type_symbol
 _atom_site_label
 _atom_site_symmetry_multiplicity
 _atom_site_fract_x
 _atom_site_fract_y
 _atom_site_fract_z
 _atom_site_occupancy
  In0+  In0  1  0.66666667  0.33333333  0.37410000  1.0
  In0+  In1  1  0.33333333  0.66666667  0.87410000  1.0
  In0+  In2  1  0.33333333  0.66666667  0.62590000  1.0
  In0+  In3  1  0.66666667  0.33333333  0.12590000  1.0
  In0+  In4  1  0.82180000  0.77460000  0.25000000  0.44
  In0+  In5  1  0.95280000  0.17820000  0.25000000  0.44
  In0+  In6  1  0.22540000  0.04720000  0.25000000  0.44
  In0+  In7  1  0.17820000  0.22540000  0.75000000  0.44
  In0+  In8  1  0.04720000  0.82180000  0.75000000  0.44
  In0+  In9  1  0.77460000  0.95280000  0.75000000  0.44
  Mo0+  Mo10  1  0.34310000  0.83390000  0.25000000  1.0
  Mo0+  Mo11  1  0.49080000  0.65690000  0.25000000  1.0
  Mo0+  Mo12  1  0.16610000  0.50920000  0.25000000  1.0
  Mo0+  Mo13  1  0.65690000  0.16610000  0.75000000  1.0
  Mo0+  Mo14  1  0.50920000  0.34310000  0.75000000  1.0
  Mo0+  Mo15  1  0.83390000  0.49080000  0.75000000  1.0
  Mo0+  Mo16  1  0.15010000  0.98550000  0.44360000  1.0
  Mo0+  Mo17  1  0.83540000  0.84990000  0.44360000  1.0
  Mo0+  Mo18  1  0.01450000  0.16460000  0.44360000  1.0
  Mo0+  Mo19  1  0.84990000  0.01450000  0.94360000  1.0
  Mo0+  Mo20  1  0.16460000  0.15010000  0.94360000  1.0
  Mo0+  Mo21  1  0.98550000  0.83540000  0.94360000  1.0
  Mo0+  Mo22  1  0.84990000  0.01450000  0.55640000  1.0
  Mo0+  Mo23  1  0.16460000  0.15010000  0.55640000  1.0
  Mo0+  Mo24  1  0.98550000  0.83540000  0.55640000  1.0
  Mo0+  Mo25  1  0.15010000  0.98550000  0.05640000  1.0
  Mo0+  Mo26  1  0.83540000  0.84990000  0.05640000  1.0
  Mo0+  Mo27  1  0.01450000  0.16460000  0.05640000  1.0
  Mo0+  Mo28  1  0.18530000  0.68140000  0.36640000  1.0
  Mo0+  Mo29  1  0.49610000  0.81470000  0.36640000  1.0
  Mo0+  Mo30  1  0.31860000  0.50390000  0.36640000  1.0
  Mo0+  Mo31  1  0.81470000  0.31860000  0.86640000  1.0
  Mo0+  Mo32  1  0.50390000  0.18530000  0.86640000  1.0
  Mo0+  Mo33  1  0.68140000  0.49610000  0.86640000  1.0
  Mo0+  Mo34  1  0.81470000  0.31860000  0.63360000  1.0
  Mo0+  Mo35  1  0.50390000  0.18530000  0.63360000  1.0
  Mo0+  Mo36  1  0.68140000  0.49610000  0.63360000  1.0
  Mo0+  Mo37  1  0.18530000  0.68140000  0.13360000  1.0
  Mo0+  Mo38  1  0.49610000  0.81470000  0.13360000  1.0
  Mo0+  Mo39  1  0.31860000  0.50390000  0.13360000  1.0
  Se0+  Se40  1  0.00000000  0.00000000  0.33950000  1.0
  Se0+  Se41  1  0.00000000  0.00000000  0.83950000  1.0
  Se0+  Se42  1  0.00000000  0.00000000  0.66050000  1.0
  Se0+  Se43  1  0.00000000  0.00000000  0.16050000  1.0
  Se0+  Se44  1  0.33333333  0.66666667  0.46930000  1.0
  Se0+  Se45  1  0.66666667  0.33333333  0.96930000  1.0
  Se0+  Se46  1  0.66666667  0.33333333  0.53070000  1.0
  Se0+  Se47  1  0.33333333  0.66666667  0.03070000  1.0
  Se0+  Se48  1  0.03660000  0.68220000  0.25000000  1.0
  Se0+  Se49  1  0.64560000  0.96340000  0.25000000  1.0
  Se0+  Se50  1  0.31780000  0.35440000  0.25000000  1.0
  Se0+  Se51  1  0.96340000  0.31780000  0.75000000  1.0
  Se0+  Se52  1  0.35440000  0.03660000  0.75000000  1.0
  Se0+  Se53  1  0.68220000  0.64560000  0.75000000  1.0
  Se0+  Se54  1  0.32090000  0.28670000  0.44780000  1.0
  Se0+  Se55  1  0.96580000  0.67910000  0.44780000  1.0
  Se0+  Se56  1  0.71330000  0.03420000  0.44780000  1.0
  Se0+  Se57  1  0.67910000  0.71330000  0.94780000  1.0
  Se0+  Se58  1  0.03420000  0.32090000  0.94780000  1.0
  Se0+  Se59  1  0.28670000  0.96580000  0.94780000  1.0
  Se0+  Se60  1  0.67910000  0.71330000  0.55220000  1.0
  Se0+  Se61  1  0.03420000  0.32090000  0.55220000  1.0
  Se0+  Se62  1  0.28670000  0.96580000  0.55220000  1.0
  Se0+  Se63  1  0.32090000  0.28670000  0.05220000  1.0
  Se0+  Se64  1  0.96580000  0.67910000  0.05220000  1.0
  Se0+  Se65  1  0.71330000  0.03420000  0.05220000  1.0
  Se0+  Se66  1  0.36990000  0.98870000  0.36240000  1.0
  Se0+  Se67  1  0.61880000  0.63010000  0.36240000  1.0
  Se0+  Se68  1  0.01130000  0.38120000  0.36240000  1.0
  Se0+  Se69  1  0.63010000  0.01130000  0.86240000  1.0
  Se0+  Se70  1  0.38120000  0.36990000  0.86240000  1.0
  Se0+  Se71  1  0.98870000  0.61880000  0.86240000  1.0
  Se0+  Se72  1  0.63010000  0.01130000  0.63760000  1.0
  Se0+  Se73  1  0.38120000  0.36990000  0.63760000  1.0
  Se0+  Se74  1  0.98870000  0.61880000  0.63760000  1.0
  Se0+  Se75  1  0.36990000  0.98870000  0.13760000  1.0
  Se0+  Se76  1  0.61880000  0.63010000  0.13760000  1.0
  Se0+  Se77  1  0.01130000  0.38120000  0.13760000  1.0
