# generated using pymatgen
data_Na(NbS2)2
_symmetry_space_group_name_H-M   'P 1'
_cell_length_a   3.35330000
_cell_length_b   3.35330000
_cell_length_c   14.54700000
_cell_angle_alpha   90.00000000
_cell_angle_beta   90.00000000
_cell_angle_gamma   120.00000000
_symmetry_Int_Tables_number   1
_chemical_formula_structural   Na(NbS2)2
_chemical_formula_sum   'Na1 Nb2 S4'
_cell_volume   141.66053851
_cell_formula_units_Z   1
loop_
 _symmetry_equiv_pos_site_id
 _symmetry_equiv_pos_as_xyz
  1  'x, y, z'
loop_
 _atom_type_symbol
 _atom_type_oxidation_number
  Na+  1.0
  Nb3.5+  3.5
  S2-  -2.0
loop_
 _atom_site_type_symbol
 _atom_site_label
 _atom_site_symmetry_multiplicity
 _atom_site_fract_x
 _atom_site_fract_y
 _atom_site_fract_z
 _atom_site_occupancy
  Na+  Na0  1  0.66666667  0.33333333  0.00020000  0.25
  Na+  Na1  1  0.33333333  0.66666667  0.99980000  0.25
  Na+  Na2  1  0.33333333  0.66666667  0.50020000  0.25
  Na+  Na3  1  0.66666667  0.33333333  0.49980000  0.25
  Nb3.5+  Nb4  1  0.33333333  0.66666667  0.25000000  1.0
  Nb3.5+  Nb5  1  0.66666667  0.33333333  0.75000000  1.0
  S2-  S6  1  0.00000000  0.00000000  0.14347000  1.0
  S2-  S7  1  0.00000000  0.00000000  0.85653000  1.0
  S2-  S8  1  0.00000000  0.00000000  0.64347000  1.0
  S2-  S9  1  0.00000000  0.00000000  0.35653000  1.0
