# generated using pymatgen
data_Ag2Sn2Se3.6S0.4
_symmetry_space_group_name_H-M   'P 1'
_cell_length_a   5.67300000
_cell_length_b   5.67300000
_cell_length_c   5.67300000
_cell_angle_alpha   90.00000000
_cell_angle_beta   90.00000000
_cell_angle_gamma   90.00000000
_symmetry_Int_Tables_number   1
_chemical_formula_structural   Ag2Sn2Se3.6S0.4
_chemical_formula_sum   'Ag2 Sn2 Se3.6 S0.4'
_cell_volume   182.57375622
_cell_formula_units_Z   1
loop_
 _symmetry_equiv_pos_site_id
 _symmetry_equiv_pos_as_xyz
  1  'x, y, z'
loop_
 _atom_type_symbol
 _atom_type_oxidation_number
  Ag+  1.0
  Sn3+  3.0
  Se2-  -2.0
  S2-  -2.0
loop_
 _atom_site_type_symbol
 _atom_site_label
 _atom_site_symmetry_multiplicity
 _atom_site_fract_x
 _atom_site_fract_y
 _atom_site_fract_z
 _atom_site_occupancy
  Ag+  Ag0  1  0.00000000  0.00000000  0.00000000  0.5
  Sn3+  Sn1  1  0.00000000  0.00000000  0.00000000  0.5
  Ag+  Ag2  1  0.00000000  0.50000000  0.50000000  0.5
  Sn3+  Sn3  1  0.00000000  0.50000000  0.50000000  0.5
  Ag+  Ag4  1  0.50000000  0.00000000  0.50000000  0.5
  Sn3+  Sn5  1  0.50000000  0.00000000  0.50000000  0.5
  Ag+  Ag6  1  0.50000000  0.50000000  0.00000000  0.5
  Sn3+  Sn7  1  0.50000000  0.50000000  0.00000000  0.5
  Se2-  Se8  1  0.50000000  0.50000000  0.50000000  0.9
  S2-  S9  1  0.50000000  0.50000000  0.50000000  0.1
  Se2-  Se10  1  0.50000000  0.00000000  0.00000000  0.9
  S2-  S11  1  0.50000000  0.00000000  0.00000000  0.1
  Se2-  Se12  1  0.00000000  0.50000000  0.00000000  0.9
  S2-  S13  1  0.00000000  0.50000000  0.00000000  0.1
  Se2-  Se14  1  0.00000000  0.00000000  0.50000000  0.9
  S2-  S15  1  0.00000000  0.00000000  0.50000000  0.1
