# generated using pymatgen
data_Y4In4Pd2.8Au5.2
_symmetry_space_group_name_H-M   'P 1'
_cell_length_a   6.85000000
_cell_length_b   6.85000000
_cell_length_c   6.85000000
_cell_angle_alpha   90.00000000
_cell_angle_beta   90.00000000
_cell_angle_gamma   90.00000000
_symmetry_Int_Tables_number   1
_chemical_formula_structural   Y4In4Pd2.8Au5.2
_chemical_formula_sum   'Y4 In4 Pd2.8 Au5.2'
_cell_volume   321.41912500
_cell_formula_units_Z   1
loop_
 _symmetry_equiv_pos_site_id
 _symmetry_equiv_pos_as_xyz
  1  'x, y, z'
loop_
 _atom_type_symbol
 _atom_type_oxidation_number
  Y0+  0.0
  In0+  0.0
  Pd0+  0.0
  Au0+  0.0
loop_
 _atom_site_type_symbol
 _atom_site_label
 _atom_site_symmetry_multiplicity
 _atom_site_fract_x
 _atom_site_fract_y
 _atom_site_fract_z
 _atom_site_occupancy
  Y0+  Y0  1  0.00000000  0.00000000  0.00000000  1.0
  Y0+  Y1  1  0.00000000  0.50000000  0.50000000  1.0
  Y0+  Y2  1  0.50000000  0.00000000  0.50000000  1.0
  Y0+  Y3  1  0.50000000  0.50000000  0.00000000  1.0
  In0+  In4  1  0.50000000  0.50000000  0.50000000  1.0
  In0+  In5  1  0.50000000  0.00000000  0.00000000  1.0
  In0+  In6  1  0.00000000  0.50000000  0.00000000  1.0
  In0+  In7  1  0.00000000  0.00000000  0.50000000  1.0
  Pd0+  Pd8  1  0.25000000  0.25000000  0.75000000  0.35
  Au0+  Au9  1  0.25000000  0.25000000  0.75000000  0.65
  Pd0+  Pd10  1  0.25000000  0.75000000  0.25000000  0.35
  Au0+  Au11  1  0.25000000  0.75000000  0.25000000  0.65
  Pd0+  Pd12  1  0.75000000  0.25000000  0.25000000  0.35
  Au0+  Au13  1  0.75000000  0.25000000  0.25000000  0.65
  Pd0+  Pd14  1  0.75000000  0.75000000  0.75000000  0.35
  Au0+  Au15  1  0.75000000  0.75000000  0.75000000  0.65
  Pd0+  Pd16  1  0.75000000  0.75000000  0.25000000  0.35
  Au0+  Au17  1  0.75000000  0.75000000  0.25000000  0.65
  Pd0+  Pd18  1  0.75000000  0.25000000  0.75000000  0.35
  Au0+  Au19  1  0.75000000  0.25000000  0.75000000  0.65
  Pd0+  Pd20  1  0.25000000  0.75000000  0.75000000  0.35
  Au0+  Au21  1  0.25000000  0.75000000  0.75000000  0.65
  Pd0+  Pd22  1  0.25000000  0.25000000  0.25000000  0.35
  Au0+  Au23  1  0.25000000  0.25000000  0.25000000  0.65
