# generated using pymatgen
data_Ba15.972Na7.992Ge100
_symmetry_space_group_name_H-M   'P 1'
_cell_length_a   14.47030000
_cell_length_b   14.47030000
_cell_length_c   14.47030000
_cell_angle_alpha   90.00000000
_cell_angle_beta   90.00000000
_cell_angle_gamma   90.00000000
_symmetry_Int_Tables_number   1
_chemical_formula_structural   Ba15.972Na7.992Ge100
_chemical_formula_sum   'Ba15.972 Na7.992 Ge100'
_cell_volume   3029.93006972
_cell_formula_units_Z   1
loop_
 _symmetry_equiv_pos_site_id
 _symmetry_equiv_pos_as_xyz
  1  'x, y, z'
loop_
 _atom_type_symbol
 _atom_type_oxidation_number
  Ba0+  0.0
  Na0+  0.0
  Ge0+  0.0
loop_
 _atom_site_type_symbol
 _atom_site_label
 _atom_site_symmetry_multiplicity
 _atom_site_fract_x
 _atom_site_fract_y
 _atom_site_fract_z
 _atom_site_occupancy
  Ba0+  Ba0  1  0.19130000  0.80870000  0.30870000  1.0
  Ba0+  Ba1  1  0.30870000  0.19130000  0.80870000  1.0
  Ba0+  Ba2  1  0.80870000  0.30870000  0.19130000  1.0
  Ba0+  Ba3  1  0.69130000  0.69130000  0.69130000  1.0
  Ba0+  Ba4  1  0.55870000  0.44130000  0.94130000  1.0
  Ba0+  Ba5  1  0.44130000  0.94130000  0.55870000  1.0
  Ba0+  Ba6  1  0.94130000  0.55870000  0.44130000  1.0
  Ba0+  Ba7  1  0.05870000  0.05870000  0.05870000  1.0
  Ba0+  Ba8  1  0.87500000  0.12500000  0.62500000  1.0
  Ba0+  Ba9  1  0.62500000  0.87500000  0.12500000  1.0
  Ba0+  Ba10  1  0.12500000  0.62500000  0.87500000  1.0
  Ba0+  Ba11  1  0.37500000  0.37500000  0.37500000  1.0
  Ba0+  Ba12  1  0.81340000  0.93660000  0.37500000  0.175
  Na0+  Na13  1  0.81340000  0.93660000  0.37500000  0.35
  Ba0+  Ba14  1  0.68660000  0.06340000  0.87500000  0.175
  Na0+  Na15  1  0.68660000  0.06340000  0.87500000  0.35
  Ba0+  Ba16  1  0.18660000  0.43660000  0.12500000  0.175
  Na0+  Na17  1  0.18660000  0.43660000  0.12500000  0.35
  Ba0+  Ba18  1  0.31340000  0.56340000  0.62500000  0.175
  Na0+  Na19  1  0.31340000  0.56340000  0.62500000  0.35
  Ba0+  Ba20  1  0.93660000  0.37500000  0.81340000  0.175
  Na0+  Na21  1  0.93660000  0.37500000  0.81340000  0.35
  Ba0+  Ba22  1  0.06340000  0.87500000  0.68660000  0.175
  Na0+  Na23  1  0.06340000  0.87500000  0.68660000  0.35
  Ba0+  Ba24  1  0.43660000  0.12500000  0.18660000  0.175
  Na0+  Na25  1  0.43660000  0.12500000  0.18660000  0.35
  Ba0+  Ba26  1  0.56340000  0.62500000  0.31340000  0.175
  Na0+  Na27  1  0.56340000  0.62500000  0.31340000  0.35
  Ba0+  Ba28  1  0.37500000  0.81340000  0.93660000  0.175
  Na0+  Na29  1  0.37500000  0.81340000  0.93660000  0.35
  Ba0+  Ba30  1  0.87500000  0.68660000  0.06340000  0.175
  Na0+  Na31  1  0.87500000  0.68660000  0.06340000  0.35
  Ba0+  Ba32  1  0.12500000  0.18660000  0.43660000  0.175
  Na0+  Na33  1  0.12500000  0.18660000  0.43660000  0.35
  Ba0+  Ba34  1  0.62500000  0.31340000  0.56340000  0.175
  Na0+  Na35  1  0.62500000  0.31340000  0.56340000  0.35
  Ba0+  Ba36  1  0.81240000  0.93870000  0.40340000  0.078
  Na0+  Na37  1  0.81240000  0.93870000  0.40340000  0.158
  Ba0+  Ba38  1  0.68760000  0.06130000  0.90340000  0.078
  Na0+  Na39  1  0.68760000  0.06130000  0.90340000  0.158
  Ba0+  Ba40  1  0.18760000  0.43870000  0.09660000  0.078
  Na0+  Na41  1  0.18760000  0.43870000  0.09660000  0.158
  Ba0+  Ba42  1  0.31240000  0.56130000  0.59660000  0.078
  Na0+  Na43  1  0.31240000  0.56130000  0.59660000  0.158
  Ba0+  Ba44  1  0.93870000  0.40340000  0.81240000  0.078
  Na0+  Na45  1  0.93870000  0.40340000  0.81240000  0.158
  Ba0+  Ba46  1  0.06130000  0.90340000  0.68760000  0.078
  Na0+  Na47  1  0.06130000  0.90340000  0.68760000  0.158
  Ba0+  Ba48  1  0.43870000  0.09660000  0.18760000  0.078
  Na0+  Na49  1  0.43870000  0.09660000  0.18760000  0.158
  Ba0+  Ba50  1  0.56130000  0.59660000  0.31240000  0.078
  Na0+  Na51  1  0.56130000  0.59660000  0.31240000  0.158
  Ba0+  Ba52  1  0.40340000  0.81240000  0.93870000  0.078
  Na0+  Na53  1  0.40340000  0.81240000  0.93870000  0.158
  Ba0+  Ba54  1  0.90340000  0.68760000  0.06130000  0.078
  Na0+  Na55  1  0.90340000  0.68760000  0.06130000  0.158
  Ba0+  Ba56  1  0.09660000  0.18760000  0.43870000  0.078
  Na0+  Na57  1  0.09660000  0.18760000  0.43870000  0.158
  Ba0+  Ba58  1  0.59660000  0.31240000  0.56130000  0.078
  Na0+  Na59  1  0.59660000  0.31240000  0.56130000  0.158
  Ba0+  Ba60  1  0.93760000  0.34660000  0.81130000  0.078
  Na0+  Na61  1  0.93760000  0.34660000  0.81130000  0.158
  Ba0+  Ba62  1  0.06240000  0.84660000  0.68870000  0.078
  Na0+  Na63  1  0.06240000  0.84660000  0.68870000  0.158
  Ba0+  Ba64  1  0.56240000  0.65340000  0.31130000  0.078
  Na0+  Na65  1  0.56240000  0.65340000  0.31130000  0.158
  Ba0+  Ba66  1  0.43760000  0.15340000  0.18870000  0.078
  Na0+  Na67  1  0.43760000  0.15340000  0.18870000  0.158
  Ba0+  Ba68  1  0.81130000  0.93760000  0.34660000  0.078
  Na0+  Na69  1  0.81130000  0.93760000  0.34660000  0.158
  Ba0+  Ba70  1  0.68870000  0.06240000  0.84660000  0.078
  Na0+  Na71  1  0.68870000  0.06240000  0.84660000  0.158
  Ba0+  Ba72  1  0.31130000  0.56240000  0.65340000  0.078
  Na0+  Na73  1  0.31130000  0.56240000  0.65340000  0.158
  Ba0+  Ba74  1  0.18870000  0.43760000  0.15340000  0.078
  Na0+  Na75  1  0.18870000  0.43760000  0.15340000  0.158
  Ba0+  Ba76  1  0.34660000  0.81130000  0.93760000  0.078
  Na0+  Na77  1  0.34660000  0.81130000  0.93760000  0.158
  Ba0+  Ba78  1  0.84660000  0.68870000  0.06240000  0.078
  Na0+  Na79  1  0.84660000  0.68870000  0.06240000  0.158
  Ba0+  Ba80  1  0.65340000  0.31130000  0.56240000  0.078
  Na0+  Na81  1  0.65340000  0.31130000  0.56240000  0.158
  Ba0+  Ba82  1  0.15340000  0.18870000  0.43760000  0.078
  Na0+  Na83  1  0.15340000  0.18870000  0.43760000  0.158
  Ge0+  Ge84  1  0.50175000  0.70383000  0.54331000  1.0
  Ge0+  Ge85  1  0.99825000  0.29617000  0.04331000  1.0
  Ge0+  Ge86  1  0.49825000  0.20383000  0.95669000  1.0
  Ge0+  Ge87  1  0.00175000  0.79617000  0.45669000  1.0
  Ge0+  Ge88  1  0.70383000  0.54331000  0.50175000  1.0
  Ge0+  Ge89  1  0.29617000  0.04331000  0.99825000  1.0
  Ge0+  Ge90  1  0.20383000  0.95669000  0.49825000  1.0
  Ge0+  Ge91  1  0.79617000  0.45669000  0.00175000  1.0
  Ge0+  Ge92  1  0.54331000  0.50175000  0.70383000  1.0
  Ge0+  Ge93  1  0.04331000  0.99825000  0.29617000  1.0
  Ge0+  Ge94  1  0.95669000  0.49825000  0.20383000  1.0
  Ge0+  Ge95  1  0.45669000  0.00175000  0.79617000  1.0
  Ge0+  Ge96  1  0.24825000  0.20669000  0.04617000  1.0
  Ge0+  Ge97  1  0.75175000  0.70669000  0.45383000  1.0
  Ge0+  Ge98  1  0.25175000  0.79331000  0.54617000  1.0
  Ge0+  Ge99  1  0.74825000  0.29331000  0.95383000  1.0
  Ge0+  Ge100  1  0.04617000  0.24825000  0.20669000  1.0
  Ge0+  Ge101  1  0.45383000  0.75175000  0.70669000  1.0
  Ge0+  Ge102  1  0.54617000  0.25175000  0.79331000  1.0
  Ge0+  Ge103  1  0.95383000  0.74825000  0.29331000  1.0
  Ge0+  Ge104  1  0.20669000  0.04617000  0.24825000  1.0
  Ge0+  Ge105  1  0.70669000  0.45383000  0.75175000  1.0
  Ge0+  Ge106  1  0.79331000  0.54617000  0.25175000  1.0
  Ge0+  Ge107  1  0.29331000  0.95383000  0.74825000  1.0
  Ge0+  Ge108  1  0.32561000  0.67439000  0.17439000  1.0
  Ge0+  Ge109  1  0.17439000  0.32561000  0.67439000  1.0
  Ge0+  Ge110  1  0.67439000  0.17439000  0.32561000  1.0
  Ge0+  Ge111  1  0.82561000  0.82561000  0.82561000  1.0
  Ge0+  Ge112  1  0.42439000  0.57561000  0.07561000  1.0
  Ge0+  Ge113  1  0.57561000  0.07561000  0.42439000  1.0
  Ge0+  Ge114  1  0.07561000  0.42439000  0.57561000  1.0
  Ge0+  Ge115  1  0.92439000  0.92439000  0.92439000  1.0
  Ge0+  Ge116  1  0.03176000  0.96824000  0.46824000  1.0
  Ge0+  Ge117  1  0.46824000  0.03176000  0.96824000  1.0
  Ge0+  Ge118  1  0.96824000  0.46824000  0.03176000  1.0
  Ge0+  Ge119  1  0.53176000  0.53176000  0.53176000  1.0
  Ge0+  Ge120  1  0.71824000  0.28176000  0.78176000  1.0
  Ge0+  Ge121  1  0.28176000  0.78176000  0.71824000  1.0
  Ge0+  Ge122  1  0.78176000  0.71824000  0.28176000  1.0
  Ge0+  Ge123  1  0.21824000  0.21824000  0.21824000  1.0
  Ge0+  Ge124  1  0.17247000  0.57753000  0.37500000  1.0
  Ge0+  Ge125  1  0.32753000  0.42247000  0.87500000  1.0
  Ge0+  Ge126  1  0.82753000  0.07753000  0.12500000  1.0
  Ge0+  Ge127  1  0.67247000  0.92247000  0.62500000  1.0
  Ge0+  Ge128  1  0.57753000  0.37500000  0.17247000  1.0
  Ge0+  Ge129  1  0.42247000  0.87500000  0.32753000  1.0
  Ge0+  Ge130  1  0.07753000  0.12500000  0.82753000  1.0
  Ge0+  Ge131  1  0.92247000  0.62500000  0.67247000  1.0
  Ge0+  Ge132  1  0.37500000  0.17247000  0.57753000  1.0
  Ge0+  Ge133  1  0.87500000  0.32753000  0.42247000  1.0
  Ge0+  Ge134  1  0.12500000  0.82753000  0.07753000  1.0
  Ge0+  Ge135  1  0.62500000  0.67247000  0.92247000  1.0
  Ge0+  Ge136  1  0.39642000  0.83378000  0.16113000  1.0
  Ge0+  Ge137  1  0.10358000  0.16622000  0.66113000  1.0
  Ge0+  Ge138  1  0.60358000  0.33378000  0.33887000  1.0
  Ge0+  Ge139  1  0.89642000  0.66622000  0.83887000  1.0
  Ge0+  Ge140  1  0.83378000  0.16113000  0.39642000  1.0
  Ge0+  Ge141  1  0.16622000  0.66113000  0.10358000  1.0
  Ge0+  Ge142  1  0.33378000  0.33887000  0.60358000  1.0
  Ge0+  Ge143  1  0.66622000  0.83887000  0.89642000  1.0
  Ge0+  Ge144  1  0.16113000  0.39642000  0.83378000  1.0
  Ge0+  Ge145  1  0.66113000  0.10358000  0.16622000  1.0
  Ge0+  Ge146  1  0.33887000  0.60358000  0.33378000  1.0
  Ge0+  Ge147  1  0.83887000  0.89642000  0.66622000  1.0
  Ge0+  Ge148  1  0.35358000  0.58887000  0.91622000  1.0
  Ge0+  Ge149  1  0.64642000  0.08887000  0.58378000  1.0
  Ge0+  Ge150  1  0.14642000  0.41113000  0.41622000  1.0
  Ge0+  Ge151  1  0.85358000  0.91113000  0.08378000  1.0
  Ge0+  Ge152  1  0.91622000  0.35358000  0.58887000  1.0
  Ge0+  Ge153  1  0.58378000  0.64642000  0.08887000  1.0
  Ge0+  Ge154  1  0.41622000  0.14642000  0.41113000  1.0
  Ge0+  Ge155  1  0.08378000  0.85358000  0.91113000  1.0
  Ge0+  Ge156  1  0.58887000  0.91622000  0.35358000  1.0
  Ge0+  Ge157  1  0.08887000  0.58378000  0.64642000  1.0
  Ge0+  Ge158  1  0.41113000  0.41622000  0.14642000  1.0
  Ge0+  Ge159  1  0.91113000  0.08378000  0.85358000  1.0
  Ge0+  Ge160  1  0.37677000  0.74090000  0.43363000  1.0
  Ge0+  Ge161  1  0.12323000  0.25910000  0.93363000  1.0
  Ge0+  Ge162  1  0.62323000  0.24090000  0.06637000  1.0
  Ge0+  Ge163  1  0.87677000  0.75910000  0.56637000  1.0
  Ge0+  Ge164  1  0.74090000  0.43363000  0.37677000  1.0
  Ge0+  Ge165  1  0.25910000  0.93363000  0.12323000  1.0
  Ge0+  Ge166  1  0.24090000  0.06637000  0.62323000  1.0
  Ge0+  Ge167  1  0.75910000  0.56637000  0.87677000  1.0
  Ge0+  Ge168  1  0.43363000  0.37677000  0.74090000  1.0
  Ge0+  Ge169  1  0.93363000  0.12323000  0.25910000  1.0
  Ge0+  Ge170  1  0.06637000  0.62323000  0.24090000  1.0
  Ge0+  Ge171  1  0.56637000  0.87677000  0.75910000  1.0
  Ge0+  Ge172  1  0.37323000  0.31637000  0.00910000  1.0
  Ge0+  Ge173  1  0.62677000  0.81637000  0.49090000  1.0
  Ge0+  Ge174  1  0.12677000  0.68363000  0.50910000  1.0
  Ge0+  Ge175  1  0.87323000  0.18363000  0.99090000  1.0
  Ge0+  Ge176  1  0.00910000  0.37323000  0.31637000  1.0
  Ge0+  Ge177  1  0.49090000  0.62677000  0.81637000  1.0
  Ge0+  Ge178  1  0.50910000  0.12677000  0.68363000  1.0
  Ge0+  Ge179  1  0.99090000  0.87323000  0.18363000  1.0
  Ge0+  Ge180  1  0.31637000  0.00910000  0.37323000  1.0
  Ge0+  Ge181  1  0.81637000  0.49090000  0.62677000  1.0
  Ge0+  Ge182  1  0.68363000  0.50910000  0.12677000  1.0
  Ge0+  Ge183  1  0.18363000  0.99090000  0.87323000  1.0
