# generated using pymatgen
data_La8Cu4O16.288
_symmetry_space_group_name_H-M   'P 1'
_cell_length_a   5.32126000
_cell_length_b   5.40613000
_cell_length_c   13.18230000
_cell_angle_alpha   90.00000000
_cell_angle_beta   90.00000000
_cell_angle_gamma   90.00000000
_symmetry_Int_Tables_number   1
_chemical_formula_structural   La8Cu4O16.288
_chemical_formula_sum   'La8 Cu4 O16.288'
_cell_volume   379.22080448
_cell_formula_units_Z   1
loop_
 _symmetry_equiv_pos_site_id
 _symmetry_equiv_pos_as_xyz
  1  'x, y, z'
loop_
 _atom_type_symbol
 _atom_type_oxidation_number
  La3+  3.0
  Cu2.14+  2.14
  O2-  -2.0
loop_
 _atom_site_type_symbol
 _atom_site_label
 _atom_site_symmetry_multiplicity
 _atom_site_fract_x
 _atom_site_fract_y
 _atom_site_fract_z
 _atom_site_occupancy
  La3+  La0  1  0.00000000  0.00000000  0.63983000  1.0
  La3+  La1  1  0.00000000  0.00000000  0.36017000  1.0
  La3+  La2  1  0.00000000  0.50000000  0.13983000  1.0
  La3+  La3  1  0.00000000  0.50000000  0.86017000  1.0
  La3+  La4  1  0.50000000  0.00000000  0.13983000  1.0
  La3+  La5  1  0.50000000  0.00000000  0.86017000  1.0
  La3+  La6  1  0.50000000  0.50000000  0.63983000  1.0
  La3+  La7  1  0.50000000  0.50000000  0.36017000  1.0
  Cu2.14+  Cu8  1  0.00000000  0.00000000  0.00000000  1.0
  Cu2.14+  Cu9  1  0.00000000  0.50000000  0.50000000  1.0
  Cu2.14+  Cu10  1  0.50000000  0.00000000  0.50000000  1.0
  Cu2.14+  Cu11  1  0.50000000  0.50000000  0.00000000  1.0
  O2-  O12  1  0.25000000  0.25000000  0.00000000  1.0
  O2-  O13  1  0.25000000  0.75000000  0.00000000  1.0
  O2-  O14  1  0.75000000  0.25000000  0.00000000  1.0
  O2-  O15  1  0.75000000  0.75000000  0.00000000  1.0
  O2-  O16  1  0.25000000  0.75000000  0.50000000  1.0
  O2-  O17  1  0.25000000  0.25000000  0.50000000  1.0
  O2-  O18  1  0.75000000  0.75000000  0.50000000  1.0
  O2-  O19  1  0.75000000  0.25000000  0.50000000  1.0
  O2-  O20  1  0.25000000  0.25000000  0.75000000  0.018
  O2-  O21  1  0.25000000  0.75000000  0.25000000  0.018
  O2-  O22  1  0.75000000  0.25000000  0.25000000  0.018
  O2-  O23  1  0.75000000  0.75000000  0.75000000  0.018
  O2-  O24  1  0.75000000  0.75000000  0.25000000  0.018
  O2-  O25  1  0.75000000  0.25000000  0.75000000  0.018
  O2-  O26  1  0.25000000  0.75000000  0.75000000  0.018
  O2-  O27  1  0.25000000  0.25000000  0.25000000  0.018
  O2-  O28  1  0.03600000  0.11600000  0.81200000  0.047
  O2-  O29  1  0.03600000  0.88400000  0.18800000  0.047
  O2-  O30  1  0.96400000  0.11600000  0.18800000  0.047
  O2-  O31  1  0.96400000  0.88400000  0.81200000  0.047
  O2-  O32  1  0.96400000  0.88400000  0.18800000  0.047
  O2-  O33  1  0.96400000  0.11600000  0.81200000  0.047
  O2-  O34  1  0.03600000  0.88400000  0.81200000  0.047
  O2-  O35  1  0.03600000  0.11600000  0.18800000  0.047
  O2-  O36  1  0.03600000  0.61600000  0.31200000  0.047
  O2-  O37  1  0.03600000  0.38400000  0.68800000  0.047
  O2-  O38  1  0.96400000  0.61600000  0.68800000  0.047
  O2-  O39  1  0.96400000  0.38400000  0.31200000  0.047
  O2-  O40  1  0.96400000  0.38400000  0.68800000  0.047
  O2-  O41  1  0.96400000  0.61600000  0.31200000  0.047
  O2-  O42  1  0.03600000  0.38400000  0.31200000  0.047
  O2-  O43  1  0.03600000  0.61600000  0.68800000  0.047
  O2-  O44  1  0.53600000  0.11600000  0.31200000  0.047
  O2-  O45  1  0.53600000  0.88400000  0.68800000  0.047
  O2-  O46  1  0.46400000  0.11600000  0.68800000  0.047
  O2-  O47  1  0.46400000  0.88400000  0.31200000  0.047
  O2-  O48  1  0.46400000  0.88400000  0.68800000  0.047
  O2-  O49  1  0.46400000  0.11600000  0.31200000  0.047
  O2-  O50  1  0.53600000  0.88400000  0.31200000  0.047
  O2-  O51  1  0.53600000  0.11600000  0.68800000  0.047
  O2-  O52  1  0.53600000  0.61600000  0.81200000  0.047
  O2-  O53  1  0.53600000  0.38400000  0.18800000  0.047
  O2-  O54  1  0.46400000  0.61600000  0.18800000  0.047
  O2-  O55  1  0.46400000  0.38400000  0.81200000  0.047
  O2-  O56  1  0.46400000  0.38400000  0.18800000  0.047
  O2-  O57  1  0.46400000  0.61600000  0.81200000  0.047
  O2-  O58  1  0.53600000  0.38400000  0.81200000  0.047
  O2-  O59  1  0.53600000  0.61600000  0.18800000  0.047
  O2-  O60  1  0.00000000  0.02980000  0.81830000  0.415
  O2-  O61  1  0.00000000  0.97020000  0.18170000  0.415
  O2-  O62  1  0.00000000  0.02980000  0.18170000  0.415
  O2-  O63  1  0.00000000  0.97020000  0.81830000  0.415
  O2-  O64  1  0.00000000  0.52980000  0.31830000  0.415
  O2-  O65  1  0.00000000  0.47020000  0.68170000  0.415
  O2-  O66  1  0.00000000  0.52980000  0.68170000  0.415
  O2-  O67  1  0.00000000  0.47020000  0.31830000  0.415
  O2-  O68  1  0.50000000  0.02980000  0.31830000  0.415
  O2-  O69  1  0.50000000  0.97020000  0.68170000  0.415
  O2-  O70  1  0.50000000  0.02980000  0.68170000  0.415
  O2-  O71  1  0.50000000  0.97020000  0.31830000  0.415
  O2-  O72  1  0.50000000  0.52980000  0.81830000  0.415
  O2-  O73  1  0.50000000  0.47020000  0.18170000  0.415
  O2-  O74  1  0.50000000  0.52980000  0.18170000  0.415
  O2-  O75  1  0.50000000  0.47020000  0.81830000  0.415
