# generated using pymatgen
data_Ba2Cu1Hg1O4.18
_symmetry_space_group_name_H-M   'P 1'
_cell_length_a   3.88060000
_cell_length_b   3.88060000
_cell_length_c   9.52790000
_cell_angle_alpha   90.00000000
_cell_angle_beta   90.00000000
_cell_angle_gamma   90.00000000
_symmetry_Int_Tables_number   1
_chemical_formula_structural   Ba2Cu1Hg1O4.18
_chemical_formula_sum   'Ba2 Cu1 Hg1 O4.18'
_cell_volume   143.48118309
_cell_formula_units_Z   1
loop_
 _symmetry_equiv_pos_site_id
 _symmetry_equiv_pos_as_xyz
  1  'x, y, z'
loop_
 _atom_type_symbol
 _atom_type_oxidation_number
  Ba2+  2.0
  Cu2.36+  2.36
  Hg2+  2.0
  O2-  -2.0
loop_
 _atom_site_type_symbol
 _atom_site_label
 _atom_site_symmetry_multiplicity
 _atom_site_fract_x
 _atom_site_fract_y
 _atom_site_fract_z
 _atom_site_occupancy
  Ba2+  Ba0  1  0.50000000  0.50000000  0.70120000  1.0
  Ba2+  Ba1  1  0.50000000  0.50000000  0.29880000  1.0
  Cu2.36+  Cu2  1  0.00000000  0.00000000  0.50000000  1.0
  Hg2+  Hg3  1  0.00000000  0.00000000  0.00000000  1.0
  O2-  O4  1  0.50000000  0.00000000  0.50000000  1.0
  O2-  O5  1  0.00000000  0.50000000  0.50000000  1.0
  O2-  O6  1  0.00000000  0.00000000  0.79260000  1.0
  O2-  O7  1  0.00000000  0.00000000  0.20740000  1.0
  O2-  O8  1  0.50000000  0.50000000  0.00000000  0.18
