# generated using pymatgen
data_Mo14.99994Ru3.00006Se23.99994
_symmetry_space_group_name_H-M   'P 1'
_cell_length_a   9.63994000
_cell_length_b   9.63994000
_cell_length_c   10.97191000
_cell_angle_alpha   90.00000000
_cell_angle_beta   90.00000000
_cell_angle_gamma   120.00000000
_symmetry_Int_Tables_number   1
_chemical_formula_structural   Mo14.99994Ru3.00006Se23.99994
_chemical_formula_sum   'Mo14.99994 Ru3.00006 Se23.99994'
_cell_volume   883.00167999
_cell_formula_units_Z   1
loop_
 _symmetry_equiv_pos_site_id
 _symmetry_equiv_pos_as_xyz
  1  'x, y, z'
loop_
 _atom_type_symbol
 _atom_type_oxidation_number
  Mo0+  0.0
  Ru0+  0.0
  Se0+  0.0
loop_
 _atom_site_type_symbol
 _atom_site_label
 _atom_site_symmetry_multiplicity
 _atom_site_fract_x
 _atom_site_fract_y
 _atom_site_fract_z
 _atom_site_occupancy
  Mo0+  Mo0  1  0.84934000  0.01723000  0.60425000  0.83333
  Ru0+  Ru1  1  0.84934000  0.01723000  0.60425000  0.16667
  Mo0+  Mo2  1  0.16789000  0.15066000  0.60425000  0.83333
  Ru0+  Ru3  1  0.16789000  0.15066000  0.60425000  0.16667
  Mo0+  Mo4  1  0.98277000  0.83211000  0.60425000  0.83333
  Ru0+  Ru5  1  0.98277000  0.83211000  0.60425000  0.16667
  Mo0+  Mo6  1  0.15066000  0.98277000  0.39575000  0.83333
  Ru0+  Ru7  1  0.15066000  0.98277000  0.39575000  0.16667
  Mo0+  Mo8  1  0.83211000  0.84934000  0.39575000  0.83333
  Ru0+  Ru9  1  0.83211000  0.84934000  0.39575000  0.16667
  Mo0+  Mo10  1  0.01723000  0.16789000  0.39575000  0.83333
  Ru0+  Ru11  1  0.01723000  0.16789000  0.39575000  0.16667
  Mo0+  Mo12  1  0.51600667  0.35056333  0.93758333  0.83333
  Ru0+  Ru13  1  0.51600667  0.35056333  0.93758333  0.16667
  Mo0+  Mo14  1  0.83455667  0.48399333  0.93758333  0.83333
  Ru0+  Ru15  1  0.83455667  0.48399333  0.93758333  0.16667
  Mo0+  Mo16  1  0.64943667  0.16544333  0.93758333  0.83333
  Ru0+  Ru17  1  0.64943667  0.16544333  0.93758333  0.16667
  Mo0+  Mo18  1  0.81732667  0.31610333  0.72908333  0.83333
  Ru0+  Ru19  1  0.81732667  0.31610333  0.72908333  0.16667
  Mo0+  Mo20  1  0.49877667  0.18267333  0.72908333  0.83333
  Ru0+  Ru21  1  0.49877667  0.18267333  0.72908333  0.16667
  Mo0+  Mo22  1  0.68389667  0.50122333  0.72908333  0.83333
  Ru0+  Ru23  1  0.68389667  0.50122333  0.72908333  0.16667
  Mo0+  Mo24  1  0.18267333  0.68389667  0.27091667  0.83333
  Ru0+  Ru25  1  0.18267333  0.68389667  0.27091667  0.16667
  Mo0+  Mo26  1  0.50122333  0.81732667  0.27091667  0.83333
  Ru0+  Ru27  1  0.50122333  0.81732667  0.27091667  0.16667
  Mo0+  Mo28  1  0.31610333  0.49877667  0.27091667  0.83333
  Ru0+  Ru29  1  0.31610333  0.49877667  0.27091667  0.16667
  Mo0+  Mo30  1  0.48399333  0.64943667  0.06241667  0.83333
  Ru0+  Ru31  1  0.48399333  0.64943667  0.06241667  0.16667
  Mo0+  Mo32  1  0.16544333  0.51600667  0.06241667  0.83333
  Ru0+  Ru33  1  0.16544333  0.51600667  0.06241667  0.16667
  Mo0+  Mo34  1  0.35056333  0.83455667  0.06241667  0.83333
  Ru0+  Ru35  1  0.35056333  0.83455667  0.06241667  0.16667
  Se0+  Se36  1  0.03856000  0.32330000  0.58606000  1.0
  Se0+  Se37  1  0.28474000  0.96144000  0.58606000  1.0
  Se0+  Se38  1  0.67670000  0.71526000  0.58606000  1.0
  Se0+  Se39  1  0.96144000  0.67670000  0.41394000  1.0
  Se0+  Se40  1  0.71526000  0.03856000  0.41394000  1.0
  Se0+  Se41  1  0.32330000  0.28474000  0.41394000  1.0
  Se0+  Se42  1  0.70522667  0.65663333  0.91939333  1.0
  Se0+  Se43  1  0.95140667  0.29477333  0.91939333  1.0
  Se0+  Se44  1  0.34336667  0.04859333  0.91939333  1.0
  Se0+  Se45  1  0.62810667  0.01003333  0.74727333  1.0
  Se0+  Se46  1  0.38192667  0.37189333  0.74727333  1.0
  Se0+  Se47  1  0.98996667  0.61807333  0.74727333  1.0
  Se0+  Se48  1  0.37189333  0.98996667  0.25272667  1.0
  Se0+  Se49  1  0.61807333  0.62810667  0.25272667  1.0
  Se0+  Se50  1  0.01003333  0.38192667  0.25272667  1.0
  Se0+  Se51  1  0.29477333  0.34336667  0.08060667  1.0
  Se0+  Se52  1  0.04859333  0.70522667  0.08060667  1.0
  Se0+  Se53  1  0.65663333  0.95140667  0.08060667  1.0
  Se0+  Se54  1  0.00000000  0.00000000  0.78500000  0.99999
  Se0+  Se55  1  0.00000000  0.00000000  0.21500000  0.99999
  Se0+  Se56  1  0.66666667  0.33333333  0.11833333  0.99999
  Se0+  Se57  1  0.66666667  0.33333333  0.54833333  0.99999
  Se0+  Se58  1  0.33333333  0.66666667  0.45166667  0.99999
  Se0+  Se59  1  0.33333333  0.66666667  0.88166667  0.99999
