# generated using pymatgen
data_B8Ru5W7
_symmetry_space_group_name_H-M   'P 1'
_cell_length_a   9.57900000
_cell_length_b   7.45900000
_cell_length_c   3.07200000
_cell_angle_alpha   90.00000000
_cell_angle_beta   90.00000000
_cell_angle_gamma   90.00000000
_symmetry_Int_Tables_number   1
_chemical_formula_structural   B8Ru5W7
_chemical_formula_sum   'B8 Ru5 W7.0'
_cell_volume   219.49366579
_cell_formula_units_Z   1
loop_
 _symmetry_equiv_pos_site_id
 _symmetry_equiv_pos_as_xyz
  1  'x, y, z'
loop_
 _atom_type_symbol
 _atom_type_oxidation_number
  B0+  0.0
  Ru0+  0.0
  W0+  0.0
loop_
 _atom_site_type_symbol
 _atom_site_label
 _atom_site_symmetry_multiplicity
 _atom_site_fract_x
 _atom_site_fract_y
 _atom_site_fract_z
 _atom_site_occupancy
  B0+  B0  1  0.53500000  0.88400000  0.50000000  1.0
  B0+  B1  1  0.46500000  0.11600000  0.50000000  1.0
  B0+  B2  1  0.03500000  0.61600000  0.00000000  1.0
  B0+  B3  1  0.96500000  0.38400000  0.00000000  1.0
  B0+  B4  1  0.72800000  0.87800000  0.50000000  1.0
  B0+  B5  1  0.27200000  0.12200000  0.50000000  1.0
  B0+  B6  1  0.22800000  0.62200000  0.00000000  1.0
  B0+  B7  1  0.77200000  0.37800000  0.00000000  1.0
  Ru0+  Ru8  1  0.60900000  0.37800000  0.50000000  0.85
  W0+  W9  1  0.60900000  0.37800000  0.50000000  0.15
  Ru0+  Ru10  1  0.39100000  0.62200000  0.50000000  0.85
  W0+  W11  1  0.39100000  0.62200000  0.50000000  0.15
  Ru0+  Ru12  1  0.10900000  0.12200000  0.00000000  0.85
  W0+  W13  1  0.10900000  0.12200000  0.00000000  0.15
  Ru0+  Ru14  1  0.89100000  0.87800000  0.00000000  0.85
  W0+  W15  1  0.89100000  0.87800000  0.00000000  0.15
  Ru0+  Ru16  1  0.86800000  0.18800000  0.50000000  0.2
  W0+  W17  1  0.86800000  0.18800000  0.50000000  0.8
  Ru0+  Ru18  1  0.13200000  0.81200000  0.50000000  0.2
  W0+  W19  1  0.13200000  0.81200000  0.50000000  0.8
  Ru0+  Ru20  1  0.36800000  0.31200000  0.00000000  0.2
  W0+  W21  1  0.36800000  0.31200000  0.00000000  0.8
  Ru0+  Ru22  1  0.63200000  0.68800000  0.00000000  0.2
  W0+  W23  1  0.63200000  0.68800000  0.00000000  0.8
  Ru0+  Ru24  1  0.14000000  0.43000000  0.50000000  0.2
  W0+  W25  1  0.14000000  0.43000000  0.50000000  0.8
  Ru0+  Ru26  1  0.86000000  0.57000000  0.50000000  0.2
  W0+  W27  1  0.86000000  0.57000000  0.50000000  0.8
  Ru0+  Ru28  1  0.64000000  0.07000000  0.00000000  0.2
  W0+  W29  1  0.64000000  0.07000000  0.00000000  0.8
  Ru0+  Ru30  1  0.36000000  0.93000000  0.00000000  0.2
  W0+  W31  1  0.36000000  0.93000000  0.00000000  0.8
