# generated using pymatgen
data_RbC15
_symmetry_space_group_name_H-M   'P 1'
_cell_length_a   11.97830000
_cell_length_b   11.97830000
_cell_length_c   11.03500000
_cell_angle_alpha   90.00000000
_cell_angle_beta   90.00000000
_cell_angle_gamma   90.00000000
_symmetry_Int_Tables_number   1
_chemical_formula_structural   RbC15
_chemical_formula_sum   'Rb8 C120'
_cell_volume   1583.29816827
_cell_formula_units_Z   8
loop_
 _symmetry_equiv_pos_site_id
 _symmetry_equiv_pos_as_xyz
  1  'x, y, z'
loop_
 _atom_type_symbol
 _atom_type_oxidation_number
  Rb0+  0.0
  C0+  0.0
loop_
 _atom_site_type_symbol
 _atom_site_label
 _atom_site_symmetry_multiplicity
 _atom_site_fract_x
 _atom_site_fract_y
 _atom_site_fract_z
 _atom_site_occupancy
  Rb0+  Rb0  1  0.50000000  0.21447000  0.00000000  1.0
  Rb0+  Rb1  1  0.50000000  0.78553000  0.00000000  1.0
  Rb0+  Rb2  1  0.78553000  0.50000000  0.00000000  1.0
  Rb0+  Rb3  1  0.21447000  0.50000000  0.00000000  1.0
  Rb0+  Rb4  1  0.00000000  0.71447000  0.50000000  1.0
  Rb0+  Rb5  1  0.00000000  0.28553000  0.50000000  1.0
  Rb0+  Rb6  1  0.28553000  0.00000000  0.50000000  1.0
  Rb0+  Rb7  1  0.71447000  0.00000000  0.50000000  1.0
  C0+  C8  1  0.05960000  0.00000000  0.68440000  0.5
  C0+  C9  1  0.94040000  0.00000000  0.68440000  0.5
  C0+  C10  1  0.00000000  0.05960000  0.68440000  0.5
  C0+  C11  1  0.00000000  0.94040000  0.68440000  0.5
  C0+  C12  1  0.94040000  0.00000000  0.31560000  0.5
  C0+  C13  1  0.05960000  0.00000000  0.31560000  0.5
  C0+  C14  1  0.00000000  0.94040000  0.31560000  0.5
  C0+  C15  1  0.00000000  0.05960000  0.31560000  0.5
  C0+  C16  1  0.55960000  0.50000000  0.18440000  0.5
  C0+  C17  1  0.44040000  0.50000000  0.18440000  0.5
  C0+  C18  1  0.50000000  0.55960000  0.18440000  0.5
  C0+  C19  1  0.50000000  0.44040000  0.18440000  0.5
  C0+  C20  1  0.44040000  0.50000000  0.81560000  0.5
  C0+  C21  1  0.55960000  0.50000000  0.81560000  0.5
  C0+  C22  1  0.50000000  0.44040000  0.81560000  0.5
  C0+  C23  1  0.50000000  0.55960000  0.81560000  0.5
  C0+  C24  1  0.29040000  0.05750000  0.00000000  0.5
  C0+  C25  1  0.70960000  0.94250000  0.00000000  0.5
  C0+  C26  1  0.70960000  0.05750000  0.00000000  0.5
  C0+  C27  1  0.29040000  0.94250000  0.00000000  0.5
  C0+  C28  1  0.94250000  0.29040000  0.00000000  0.5
  C0+  C29  1  0.05750000  0.70960000  0.00000000  0.5
  C0+  C30  1  0.05750000  0.29040000  0.00000000  0.5
  C0+  C31  1  0.94250000  0.70960000  0.00000000  0.5
  C0+  C32  1  0.79040000  0.55750000  0.50000000  0.5
  C0+  C33  1  0.20960000  0.44250000  0.50000000  0.5
  C0+  C34  1  0.20960000  0.55750000  0.50000000  0.5
  C0+  C35  1  0.79040000  0.44250000  0.50000000  0.5
  C0+  C36  1  0.44250000  0.79040000  0.50000000  0.5
  C0+  C37  1  0.55750000  0.20960000  0.50000000  0.5
  C0+  C38  1  0.55750000  0.79040000  0.50000000  0.5
  C0+  C39  1  0.44250000  0.20960000  0.50000000  0.5
  C0+  C40  1  0.00000000  0.29200000  0.93720000  0.5
  C0+  C41  1  0.00000000  0.70800000  0.93720000  0.5
  C0+  C42  1  0.70800000  0.00000000  0.93720000  0.5
  C0+  C43  1  0.29200000  0.00000000  0.93720000  0.5
  C0+  C44  1  0.00000000  0.70800000  0.06280000  0.5
  C0+  C45  1  0.00000000  0.29200000  0.06280000  0.5
  C0+  C46  1  0.29200000  0.00000000  0.06280000  0.5
  C0+  C47  1  0.70800000  0.00000000  0.06280000  0.5
  C0+  C48  1  0.50000000  0.79200000  0.43720000  0.5
  C0+  C49  1  0.50000000  0.20800000  0.43720000  0.5
  C0+  C50  1  0.20800000  0.50000000  0.43720000  0.5
  C0+  C51  1  0.79200000  0.50000000  0.43720000  0.5
  C0+  C52  1  0.50000000  0.20800000  0.56280000  0.5
  C0+  C53  1  0.50000000  0.79200000  0.56280000  0.5
  C0+  C54  1  0.79200000  0.50000000  0.56280000  0.5
  C0+  C55  1  0.20800000  0.50000000  0.56280000  0.5
  C0+  C56  1  0.12060000  0.09670000  0.72460000  0.5
  C0+  C57  1  0.87940000  0.90330000  0.72460000  0.5
  C0+  C58  1  0.87940000  0.09670000  0.72460000  0.5
  C0+  C59  1  0.12060000  0.90330000  0.72460000  0.5
  C0+  C60  1  0.90330000  0.12060000  0.72460000  0.5
  C0+  C61  1  0.09670000  0.87940000  0.72460000  0.5
  C0+  C62  1  0.09670000  0.12060000  0.72460000  0.5
  C0+  C63  1  0.90330000  0.87940000  0.72460000  0.5
  C0+  C64  1  0.87940000  0.90330000  0.27540000  0.5
  C0+  C65  1  0.12060000  0.09670000  0.27540000  0.5
  C0+  C66  1  0.12060000  0.90330000  0.27540000  0.5
  C0+  C67  1  0.87940000  0.09670000  0.27540000  0.5
  C0+  C68  1  0.09670000  0.87940000  0.27540000  0.5
  C0+  C69  1  0.90330000  0.12060000  0.27540000  0.5
  C0+  C70  1  0.90330000  0.87940000  0.27540000  0.5
  C0+  C71  1  0.09670000  0.12060000  0.27540000  0.5
  C0+  C72  1  0.62060000  0.59670000  0.22460000  0.5
  C0+  C73  1  0.37940000  0.40330000  0.22460000  0.5
  C0+  C74  1  0.37940000  0.59670000  0.22460000  0.5
  C0+  C75  1  0.62060000  0.40330000  0.22460000  0.5
  C0+  C76  1  0.40330000  0.62060000  0.22460000  0.5
  C0+  C77  1  0.59670000  0.37940000  0.22460000  0.5
  C0+  C78  1  0.59670000  0.62060000  0.22460000  0.5
  C0+  C79  1  0.40330000  0.37940000  0.22460000  0.5
  C0+  C80  1  0.37940000  0.40330000  0.77540000  0.5
  C0+  C81  1  0.62060000  0.59670000  0.77540000  0.5
  C0+  C82  1  0.62060000  0.40330000  0.77540000  0.5
  C0+  C83  1  0.37940000  0.59670000  0.77540000  0.5
  C0+  C84  1  0.59670000  0.37940000  0.77540000  0.5
  C0+  C85  1  0.40330000  0.62060000  0.77540000  0.5
  C0+  C86  1  0.40330000  0.37940000  0.77540000  0.5
  C0+  C87  1  0.59670000  0.62060000  0.77540000  0.5
  C0+  C88  1  0.25190000  0.12210000  0.89530000  0.5
  C0+  C89  1  0.74810000  0.87790000  0.89530000  0.5
  C0+  C90  1  0.74810000  0.12210000  0.89530000  0.5
  C0+  C91  1  0.25190000  0.87790000  0.89530000  0.5
  C0+  C92  1  0.87790000  0.25190000  0.89530000  0.5
  C0+  C93  1  0.12210000  0.74810000  0.89530000  0.5
  C0+  C94  1  0.12210000  0.25190000  0.89530000  0.5
  C0+  C95  1  0.87790000  0.74810000  0.89530000  0.5
  C0+  C96  1  0.74810000  0.87790000  0.10470000  0.5
  C0+  C97  1  0.25190000  0.12210000  0.10470000  0.5
  C0+  C98  1  0.25190000  0.87790000  0.10470000  0.5
  C0+  C99  1  0.74810000  0.12210000  0.10470000  0.5
  C0+  C100  1  0.12210000  0.74810000  0.10470000  0.5
  C0+  C101  1  0.87790000  0.25190000  0.10470000  0.5
  C0+  C102  1  0.87790000  0.74810000  0.10470000  0.5
  C0+  C103  1  0.12210000  0.25190000  0.10470000  0.5
  C0+  C104  1  0.75190000  0.62210000  0.39530000  0.5
  C0+  C105  1  0.24810000  0.37790000  0.39530000  0.5
  C0+  C106  1  0.24810000  0.62210000  0.39530000  0.5
  C0+  C107  1  0.75190000  0.37790000  0.39530000  0.5
  C0+  C108  1  0.37790000  0.75190000  0.39530000  0.5
  C0+  C109  1  0.62210000  0.24810000  0.39530000  0.5
  C0+  C110  1  0.62210000  0.75190000  0.39530000  0.5
  C0+  C111  1  0.37790000  0.24810000  0.39530000  0.5
  C0+  C112  1  0.24810000  0.37790000  0.60470000  0.5
  C0+  C113  1  0.75190000  0.62210000  0.60470000  0.5
  C0+  C114  1  0.75190000  0.37790000  0.60470000  0.5
  C0+  C115  1  0.24810000  0.62210000  0.60470000  0.5
  C0+  C116  1  0.62210000  0.24810000  0.60470000  0.5
  C0+  C117  1  0.37790000  0.75190000  0.60470000  0.5
  C0+  C118  1  0.37790000  0.24810000  0.60470000  0.5
  C0+  C119  1  0.62210000  0.75190000  0.60470000  0.5
  C0+  C120  1  0.09660000  0.25420000  0.86980000  0.5
  C0+  C121  1  0.90340000  0.74580000  0.86980000  0.5
  C0+  C122  1  0.90340000  0.25420000  0.86980000  0.5
  C0+  C123  1  0.09660000  0.74580000  0.86980000  0.5
  C0+  C124  1  0.74580000  0.09660000  0.86980000  0.5
  C0+  C125  1  0.25420000  0.90340000  0.86980000  0.5
  C0+  C126  1  0.25420000  0.09660000  0.86980000  0.5
  C0+  C127  1  0.74580000  0.90340000  0.86980000  0.5
  C0+  C128  1  0.90340000  0.74580000  0.13020000  0.5
  C0+  C129  1  0.09660000  0.25420000  0.13020000  0.5
  C0+  C130  1  0.09660000  0.74580000  0.13020000  0.5
  C0+  C131  1  0.90340000  0.25420000  0.13020000  0.5
  C0+  C132  1  0.25420000  0.90340000  0.13020000  0.5
  C0+  C133  1  0.74580000  0.09660000  0.13020000  0.5
  C0+  C134  1  0.74580000  0.90340000  0.13020000  0.5
  C0+  C135  1  0.25420000  0.09660000  0.13020000  0.5
  C0+  C136  1  0.59660000  0.75420000  0.36980000  0.5
  C0+  C137  1  0.40340000  0.24580000  0.36980000  0.5
  C0+  C138  1  0.40340000  0.75420000  0.36980000  0.5
  C0+  C139  1  0.59660000  0.24580000  0.36980000  0.5
  C0+  C140  1  0.24580000  0.59660000  0.36980000  0.5
  C0+  C141  1  0.75420000  0.40340000  0.36980000  0.5
  C0+  C142  1  0.75420000  0.59660000  0.36980000  0.5
  C0+  C143  1  0.24580000  0.40340000  0.36980000  0.5
  C0+  C144  1  0.40340000  0.24580000  0.63020000  0.5
  C0+  C145  1  0.59660000  0.75420000  0.63020000  0.5
  C0+  C146  1  0.59660000  0.24580000  0.63020000  0.5
  C0+  C147  1  0.40340000  0.75420000  0.63020000  0.5
  C0+  C148  1  0.75420000  0.40340000  0.63020000  0.5
  C0+  C149  1  0.24580000  0.59660000  0.63020000  0.5
  C0+  C150  1  0.24580000  0.40340000  0.63020000  0.5
  C0+  C151  1  0.75420000  0.59660000  0.63020000  0.5
  C0+  C152  1  0.21560000  0.06120000  0.79180000  0.5
  C0+  C153  1  0.78440000  0.93880000  0.79180000  0.5
  C0+  C154  1  0.78440000  0.06120000  0.79180000  0.5
  C0+  C155  1  0.21560000  0.93880000  0.79180000  0.5
  C0+  C156  1  0.93880000  0.21560000  0.79180000  0.5
  C0+  C157  1  0.06120000  0.78440000  0.79180000  0.5
  C0+  C158  1  0.06120000  0.21560000  0.79180000  0.5
  C0+  C159  1  0.93880000  0.78440000  0.79180000  0.5
  C0+  C160  1  0.78440000  0.93880000  0.20820000  0.5
  C0+  C161  1  0.21560000  0.06120000  0.20820000  0.5
  C0+  C162  1  0.21560000  0.93880000  0.20820000  0.5
  C0+  C163  1  0.78440000  0.06120000  0.20820000  0.5
  C0+  C164  1  0.06120000  0.78440000  0.20820000  0.5
  C0+  C165  1  0.93880000  0.21560000  0.20820000  0.5
  C0+  C166  1  0.93880000  0.78440000  0.20820000  0.5
  C0+  C167  1  0.06120000  0.21560000  0.20820000  0.5
  C0+  C168  1  0.71560000  0.56120000  0.29180000  0.5
  C0+  C169  1  0.28440000  0.43880000  0.29180000  0.5
  C0+  C170  1  0.28440000  0.56120000  0.29180000  0.5
  C0+  C171  1  0.71560000  0.43880000  0.29180000  0.5
  C0+  C172  1  0.43880000  0.71560000  0.29180000  0.5
  C0+  C173  1  0.56120000  0.28440000  0.29180000  0.5
  C0+  C174  1  0.56120000  0.71560000  0.29180000  0.5
  C0+  C175  1  0.43880000  0.28440000  0.29180000  0.5
  C0+  C176  1  0.28440000  0.43880000  0.70820000  0.5
  C0+  C177  1  0.71560000  0.56120000  0.70820000  0.5
  C0+  C178  1  0.71560000  0.43880000  0.70820000  0.5
  C0+  C179  1  0.28440000  0.56120000  0.70820000  0.5
  C0+  C180  1  0.56120000  0.28440000  0.70820000  0.5
  C0+  C181  1  0.43880000  0.71560000  0.70820000  0.5
  C0+  C182  1  0.43880000  0.28440000  0.70820000  0.5
  C0+  C183  1  0.56120000  0.71560000  0.70820000  0.5
  C0+  C184  1  0.19200000  0.21840000  0.93510000  0.5
  C0+  C185  1  0.80800000  0.78160000  0.93510000  0.5
  C0+  C186  1  0.80800000  0.21840000  0.93510000  0.5
  C0+  C187  1  0.19200000  0.78160000  0.93510000  0.5
  C0+  C188  1  0.78160000  0.19200000  0.93510000  0.5
  C0+  C189  1  0.21840000  0.80800000  0.93510000  0.5
  C0+  C190  1  0.21840000  0.19200000  0.93510000  0.5
  C0+  C191  1  0.78160000  0.80800000  0.93510000  0.5
  C0+  C192  1  0.80800000  0.78160000  0.06490000  0.5
  C0+  C193  1  0.19200000  0.21840000  0.06490000  0.5
  C0+  C194  1  0.19200000  0.78160000  0.06490000  0.5
  C0+  C195  1  0.80800000  0.21840000  0.06490000  0.5
  C0+  C196  1  0.21840000  0.80800000  0.06490000  0.5
  C0+  C197  1  0.78160000  0.19200000  0.06490000  0.5
  C0+  C198  1  0.78160000  0.80800000  0.06490000  0.5
  C0+  C199  1  0.21840000  0.19200000  0.06490000  0.5
  C0+  C200  1  0.69200000  0.71840000  0.43510000  0.5
  C0+  C201  1  0.30800000  0.28160000  0.43510000  0.5
  C0+  C202  1  0.30800000  0.71840000  0.43510000  0.5
  C0+  C203  1  0.69200000  0.28160000  0.43510000  0.5
  C0+  C204  1  0.28160000  0.69200000  0.43510000  0.5
  C0+  C205  1  0.71840000  0.30800000  0.43510000  0.5
  C0+  C206  1  0.71840000  0.69200000  0.43510000  0.5
  C0+  C207  1  0.28160000  0.30800000  0.43510000  0.5
  C0+  C208  1  0.30800000  0.28160000  0.56490000  0.5
  C0+  C209  1  0.69200000  0.71840000  0.56490000  0.5
  C0+  C210  1  0.69200000  0.28160000  0.56490000  0.5
  C0+  C211  1  0.30800000  0.71840000  0.56490000  0.5
  C0+  C212  1  0.71840000  0.30800000  0.56490000  0.5
  C0+  C213  1  0.28160000  0.69200000  0.56490000  0.5
  C0+  C214  1  0.28160000  0.30800000  0.56490000  0.5
  C0+  C215  1  0.71840000  0.69200000  0.56490000  0.5
  C0+  C216  1  0.06080000  0.19280000  0.76340000  0.5
  C0+  C217  1  0.93920000  0.80720000  0.76340000  0.5
  C0+  C218  1  0.93920000  0.19280000  0.76340000  0.5
  C0+  C219  1  0.06080000  0.80720000  0.76340000  0.5
  C0+  C220  1  0.80720000  0.06080000  0.76340000  0.5
  C0+  C221  1  0.19280000  0.93920000  0.76340000  0.5
  C0+  C222  1  0.19280000  0.06080000  0.76340000  0.5
  C0+  C223  1  0.80720000  0.93920000  0.76340000  0.5
  C0+  C224  1  0.93920000  0.80720000  0.23660000  0.5
  C0+  C225  1  0.06080000  0.19280000  0.23660000  0.5
  C0+  C226  1  0.06080000  0.80720000  0.23660000  0.5
  C0+  C227  1  0.93920000  0.19280000  0.23660000  0.5
  C0+  C228  1  0.19280000  0.93920000  0.23660000  0.5
  C0+  C229  1  0.80720000  0.06080000  0.23660000  0.5
  C0+  C230  1  0.80720000  0.93920000  0.23660000  0.5
  C0+  C231  1  0.19280000  0.06080000  0.23660000  0.5
  C0+  C232  1  0.56080000  0.69280000  0.26340000  0.5
  C0+  C233  1  0.43920000  0.30720000  0.26340000  0.5
  C0+  C234  1  0.43920000  0.69280000  0.26340000  0.5
  C0+  C235  1  0.56080000  0.30720000  0.26340000  0.5
  C0+  C236  1  0.30720000  0.56080000  0.26340000  0.5
  C0+  C237  1  0.69280000  0.43920000  0.26340000  0.5
  C0+  C238  1  0.69280000  0.56080000  0.26340000  0.5
  C0+  C239  1  0.30720000  0.43920000  0.26340000  0.5
  C0+  C240  1  0.43920000  0.30720000  0.73660000  0.5
  C0+  C241  1  0.56080000  0.69280000  0.73660000  0.5
  C0+  C242  1  0.56080000  0.30720000  0.73660000  0.5
  C0+  C243  1  0.43920000  0.69280000  0.73660000  0.5
  C0+  C244  1  0.69280000  0.43920000  0.73660000  0.5
  C0+  C245  1  0.30720000  0.56080000  0.73660000  0.5
  C0+  C246  1  0.30720000  0.43920000  0.73660000  0.5
  C0+  C247  1  0.69280000  0.56080000  0.73660000  0.5
