# generated using pymatgen
data_Nb8Pd2.696Se20
_symmetry_space_group_name_H-M   'P 1'
_cell_length_a   12.83250000
_cell_length_b   3.39327000
_cell_length_c   15.38590000
_cell_angle_alpha   90.00000000
_cell_angle_beta   101.47100000
_cell_angle_gamma   90.00000000
_symmetry_Int_Tables_number   1
_chemical_formula_structural   Nb8Pd2.696Se20
_chemical_formula_sum   'Nb8 Pd2.696 Se20'
_cell_volume   656.58350314
_cell_formula_units_Z   1
loop_
 _symmetry_equiv_pos_site_id
 _symmetry_equiv_pos_as_xyz
  1  'x, y, z'
loop_
 _atom_type_symbol
 _atom_type_oxidation_number
  Nb4.33+  4.33
  Pd2+  2.0
  Se2-  -2.0
loop_
 _atom_site_type_symbol
 _atom_site_label
 _atom_site_symmetry_multiplicity
 _atom_site_fract_x
 _atom_site_fract_y
 _atom_site_fract_z
 _atom_site_occupancy
  Nb4.33+  Nb0  1  0.92405000  0.50000000  0.82001000  1.0
  Nb4.33+  Nb1  1  0.07595000  0.50000000  0.17999000  1.0
  Nb4.33+  Nb2  1  0.42405000  0.00000000  0.82001000  1.0
  Nb4.33+  Nb3  1  0.57595000  0.00000000  0.17999000  1.0
  Nb4.33+  Nb4  1  0.84712000  0.00000000  0.62146000  1.0
  Nb4.33+  Nb5  1  0.15288000  0.00000000  0.37854000  1.0
  Nb4.33+  Nb6  1  0.34712000  0.50000000  0.62146000  1.0
  Nb4.33+  Nb7  1  0.65288000  0.50000000  0.37854000  1.0
  Pd2+  Pd8  1  0.00000000  0.00000000  0.00000000  1.0
  Pd2+  Pd9  1  0.50000000  0.50000000  0.00000000  1.0
  Pd2+  Pd10  1  0.00000000  0.00000000  0.50000000  0.348
  Pd2+  Pd11  1  0.50000000  0.50000000  0.50000000  0.348
  Se2-  Se12  1  0.64964000  0.00000000  0.51086000  1.0
  Se2-  Se13  1  0.35036000  0.00000000  0.48914000  1.0
  Se2-  Se14  1  0.14964000  0.50000000  0.51086000  1.0
  Se2-  Se15  1  0.85036000  0.50000000  0.48914000  1.0
  Se2-  Se16  1  0.74626000  0.50000000  0.70434000  1.0
  Se2-  Se17  1  0.25374000  0.50000000  0.29566000  1.0
  Se2-  Se18  1  0.24626000  0.00000000  0.70434000  1.0
  Se2-  Se19  1  0.75374000  0.00000000  0.29566000  1.0
  Se2-  Se20  1  0.82464000  0.00000000  0.90222000  1.0
  Se2-  Se21  1  0.17536000  0.00000000  0.09778000  1.0
  Se2-  Se22  1  0.32464000  0.50000000  0.90222000  1.0
  Se2-  Se23  1  0.67536000  0.50000000  0.09778000  1.0
  Se2-  Se24  1  0.57697000  0.50000000  0.86786000  1.0
  Se2-  Se25  1  0.42303000  0.50000000  0.13214000  1.0
  Se2-  Se26  1  0.07697000  0.00000000  0.86786000  1.0
  Se2-  Se27  1  0.92303000  0.00000000  0.13214000  1.0
  Se2-  Se28  1  0.49959000  0.00000000  0.67654000  1.0
  Se2-  Se29  1  0.50041000  0.00000000  0.32346000  1.0
  Se2-  Se30  1  0.99959000  0.50000000  0.67654000  1.0
  Se2-  Se31  1  0.00041000  0.50000000  0.32346000  1.0
