# generated using pymatgen
data_Nb12Pd2.786Se28
_symmetry_space_group_name_H-M   'P 1'
_cell_length_a   12.79650000
_cell_length_b   3.40591000
_cell_length_c   21.03700000
_cell_angle_alpha   90.00000000
_cell_angle_beta   95.53000000
_cell_angle_gamma   90.00000000
_symmetry_Int_Tables_number   1
_chemical_formula_structural   Nb12Pd2.786Se28
_chemical_formula_sum   'Nb12 Pd2.786 Se28'
_cell_volume   912.60364190
_cell_formula_units_Z   1
loop_
 _symmetry_equiv_pos_site_id
 _symmetry_equiv_pos_as_xyz
  1  'x, y, z'
loop_
 _atom_type_symbol
 _atom_type_oxidation_number
  Nb4.2+  4.2
  Pd2+  2.0
  Se2-  -2.0
loop_
 _atom_site_type_symbol
 _atom_site_label
 _atom_site_symmetry_multiplicity
 _atom_site_fract_x
 _atom_site_fract_y
 _atom_site_fract_z
 _atom_site_occupancy
  Nb4.2+  Nb0  1  0.94152000  0.50000000  0.87235000  1.0
  Nb4.2+  Nb1  1  0.05848000  0.50000000  0.12765000  1.0
  Nb4.2+  Nb2  1  0.44152000  0.00000000  0.87235000  1.0
  Nb4.2+  Nb3  1  0.55848000  0.00000000  0.12765000  1.0
  Nb4.2+  Nb4  1  0.88324000  0.00000000  0.73032000  1.0
  Nb4.2+  Nb5  1  0.11676000  0.00000000  0.26968000  1.0
  Nb4.2+  Nb6  1  0.38324000  0.50000000  0.73032000  1.0
  Nb4.2+  Nb7  1  0.61676000  0.50000000  0.26968000  1.0
  Nb4.2+  Nb8  1  0.83167000  0.50000000  0.58822000  1.0
  Nb4.2+  Nb9  1  0.16833000  0.50000000  0.41178000  1.0
  Nb4.2+  Nb10  1  0.33167000  0.00000000  0.58822000  1.0
  Nb4.2+  Nb11  1  0.66833000  0.00000000  0.41178000  1.0
  Pd2+  Pd12  1  0.00000000  0.00000000  0.00000000  1.0
  Pd2+  Pd13  1  0.50000000  0.50000000  0.00000000  1.0
  Pd2+  Pd14  1  0.00000000  0.50000000  0.50000000  0.393
  Pd2+  Pd15  1  0.50000000  0.00000000  0.50000000  0.393
  Se2-  Se16  1  0.64859000  0.50000000  0.50708000  1.0
  Se2-  Se17  1  0.35141000  0.50000000  0.49292000  1.0
  Se2-  Se18  1  0.14859000  0.00000000  0.50708000  1.0
  Se2-  Se19  1  0.85141000  0.00000000  0.49292000  1.0
  Se2-  Se20  1  0.83350000  0.00000000  0.93230000  1.0
  Se2-  Se21  1  0.16650000  0.00000000  0.06770000  1.0
  Se2-  Se22  1  0.33350000  0.50000000  0.93230000  1.0
  Se2-  Se23  1  0.66650000  0.50000000  0.06770000  1.0
  Se2-  Se24  1  0.59015000  0.50000000  0.90343000  1.0
  Se2-  Se25  1  0.40985000  0.50000000  0.09657000  1.0
  Se2-  Se26  1  0.09015000  0.00000000  0.90343000  1.0
  Se2-  Se27  1  0.90985000  0.00000000  0.09657000  1.0
  Se2-  Se28  1  0.77574000  0.50000000  0.79036000  1.0
  Se2-  Se29  1  0.22426000  0.50000000  0.20964000  1.0
  Se2-  Se30  1  0.27574000  0.00000000  0.79036000  1.0
  Se2-  Se31  1  0.72426000  0.00000000  0.20964000  1.0
  Se2-  Se32  1  0.71937000  0.00000000  0.64681000  1.0
  Se2-  Se33  1  0.28063000  0.00000000  0.35319000  1.0
  Se2-  Se34  1  0.21937000  0.50000000  0.64681000  1.0
  Se2-  Se35  1  0.78063000  0.50000000  0.35319000  1.0
  Se2-  Se36  1  0.52916000  0.00000000  0.76630000  1.0
  Se2-  Se37  1  0.47084000  0.00000000  0.23370000  1.0
  Se2-  Se38  1  0.02916000  0.50000000  0.76630000  1.0
  Se2-  Se39  1  0.97084000  0.50000000  0.23370000  1.0
  Se2-  Se40  1  0.97796000  0.00000000  0.62737000  1.0
  Se2-  Se41  1  0.02204000  0.00000000  0.37263000  1.0
  Se2-  Se42  1  0.47796000  0.50000000  0.62737000  1.0
  Se2-  Se43  1  0.52204000  0.50000000  0.37263000  1.0
