# generated using pymatgen
data_Sr2Si3
_symmetry_space_group_name_H-M   'P 1'
_cell_length_a   4.41000000
_cell_length_b   4.41000000
_cell_length_c   13.93000000
_cell_angle_alpha   90.00000000
_cell_angle_beta   90.00000000
_cell_angle_gamma   90.00000000
_symmetry_Int_Tables_number   1
_chemical_formula_structural   Sr2Si3
_chemical_formula_sum   'Sr4 Si6'
_cell_volume   270.91203300
_cell_formula_units_Z   2
loop_
 _symmetry_equiv_pos_site_id
 _symmetry_equiv_pos_as_xyz
  1  'x, y, z'
loop_
 _atom_type_symbol
 _atom_type_oxidation_number
  Sr0+  0.0
  Si0+  0.0
loop_
 _atom_site_type_symbol
 _atom_site_label
 _atom_site_symmetry_multiplicity
 _atom_site_fract_x
 _atom_site_fract_y
 _atom_site_fract_z
 _atom_site_occupancy
  Sr0+  Sr0  1  0.00000000  0.50000000  0.25000000  1.0
  Sr0+  Sr1  1  0.00000000  0.00000000  0.00000000  1.0
  Sr0+  Sr2  1  0.50000000  0.00000000  0.75000000  1.0
  Sr0+  Sr3  1  0.50000000  0.50000000  0.50000000  1.0
  Si0+  Si4  1  0.00000000  0.50000000  0.66500000  0.75
  Si0+  Si5  1  0.00000000  0.00000000  0.58500000  0.75
  Si0+  Si6  1  0.00000000  0.50000000  0.83500000  0.75
  Si0+  Si7  1  0.00000000  0.00000000  0.41500000  0.75
  Si0+  Si8  1  0.50000000  0.00000000  0.16500000  0.75
  Si0+  Si9  1  0.50000000  0.50000000  0.08500000  0.75
  Si0+  Si10  1  0.50000000  0.00000000  0.33500000  0.75
  Si0+  Si11  1  0.50000000  0.50000000  0.91500000  0.75
