# generated using pymatgen
data_In2TeAs
_symmetry_space_group_name_H-M   'P 1'
_cell_length_a   6.07800000
_cell_length_b   6.07800000
_cell_length_c   6.07800000
_cell_angle_alpha   90.00000000
_cell_angle_beta   90.00000000
_cell_angle_gamma   90.00000000
_symmetry_Int_Tables_number   1
_chemical_formula_structural   In2TeAs
_chemical_formula_sum   'In4 Te2 As2'
_cell_volume   224.53398655
_cell_formula_units_Z   2
loop_
 _symmetry_equiv_pos_site_id
 _symmetry_equiv_pos_as_xyz
  1  'x, y, z'
loop_
 _atom_type_symbol
 _atom_type_oxidation_number
  In2.5+  2.5
  Te2-  -2.0
  As3-  -3.0
loop_
 _atom_site_type_symbol
 _atom_site_label
 _atom_site_symmetry_multiplicity
 _atom_site_fract_x
 _atom_site_fract_y
 _atom_site_fract_z
 _atom_site_occupancy
  In2.5+  In0  1  0.00000000  0.00000000  0.00000000  1.0
  In2.5+  In1  1  0.00000000  0.50000000  0.50000000  1.0
  In2.5+  In2  1  0.50000000  0.00000000  0.50000000  1.0
  In2.5+  In3  1  0.50000000  0.50000000  0.00000000  1.0
  Te2-  Te4  1  0.75000000  0.75000000  0.25000000  0.5
  As3-  As5  1  0.75000000  0.75000000  0.25000000  0.5
  Te2-  Te6  1  0.75000000  0.25000000  0.75000000  0.5
  As3-  As7  1  0.75000000  0.25000000  0.75000000  0.5
  Te2-  Te8  1  0.25000000  0.75000000  0.75000000  0.5
  As3-  As9  1  0.25000000  0.75000000  0.75000000  0.5
  Te2-  Te10  1  0.25000000  0.25000000  0.25000000  0.5
  As3-  As11  1  0.25000000  0.25000000  0.25000000  0.5
