# generated using pymatgen
data_In4SbTe3
_symmetry_space_group_name_H-M   'P 1'
_cell_length_a   6.12800000
_cell_length_b   6.12800000
_cell_length_c   6.12800000
_cell_angle_alpha   90.00000000
_cell_angle_beta   90.00000000
_cell_angle_gamma   90.00000000
_symmetry_Int_Tables_number   1
_chemical_formula_structural   In4SbTe3
_chemical_formula_sum   'In4 Sb1 Te3'
_cell_volume   230.12100915
_cell_formula_units_Z   1
loop_
 _symmetry_equiv_pos_site_id
 _symmetry_equiv_pos_as_xyz
  1  'x, y, z'
loop_
 _atom_type_symbol
 _atom_type_oxidation_number
  In2.25+  2.25
  Sb3-  -3.0
  Te2-  -2.0
loop_
 _atom_site_type_symbol
 _atom_site_label
 _atom_site_symmetry_multiplicity
 _atom_site_fract_x
 _atom_site_fract_y
 _atom_site_fract_z
 _atom_site_occupancy
  In2.25+  In0  1  0.00000000  0.00000000  0.00000000  1.0
  In2.25+  In1  1  0.00000000  0.50000000  0.50000000  1.0
  In2.25+  In2  1  0.50000000  0.00000000  0.50000000  1.0
  In2.25+  In3  1  0.50000000  0.50000000  0.00000000  1.0
  Sb3-  Sb4  1  0.50000000  0.50000000  0.50000000  0.25
  Te2-  Te5  1  0.50000000  0.50000000  0.50000000  0.75
  Sb3-  Sb6  1  0.50000000  0.00000000  0.00000000  0.25
  Te2-  Te7  1  0.50000000  0.00000000  0.00000000  0.75
  Sb3-  Sb8  1  0.00000000  0.50000000  0.00000000  0.25
  Te2-  Te9  1  0.00000000  0.50000000  0.00000000  0.75
  Sb3-  Sb10  1  0.00000000  0.00000000  0.50000000  0.25
  Te2-  Te11  1  0.00000000  0.00000000  0.50000000  0.75
