# generated using pymatgen
data_In1.6Sn2.4Te4
_symmetry_space_group_name_H-M   'P 1'
_cell_length_a   6.27000000
_cell_length_b   6.27000000
_cell_length_c   6.27000000
_cell_angle_alpha   90.00000000
_cell_angle_beta   90.00000000
_cell_angle_gamma   90.00000000
_symmetry_Int_Tables_number   1
_chemical_formula_structural   In1.6Sn2.4Te4
_chemical_formula_sum   'In1.6 Sn2.4 Te4'
_cell_volume   246.49188300
_cell_formula_units_Z   1
loop_
 _symmetry_equiv_pos_site_id
 _symmetry_equiv_pos_as_xyz
  1  'x, y, z'
loop_
 _atom_type_symbol
 _atom_type_oxidation_number
  In2+  2.0
  Sn2+  2.0
  Te2-  -2.0
loop_
 _atom_site_type_symbol
 _atom_site_label
 _atom_site_symmetry_multiplicity
 _atom_site_fract_x
 _atom_site_fract_y
 _atom_site_fract_z
 _atom_site_occupancy
  In2+  In0  1  0.00000000  0.00000000  0.00000000  0.4
  Sn2+  Sn1  1  0.00000000  0.00000000  0.00000000  0.6
  In2+  In2  1  0.00000000  0.50000000  0.50000000  0.4
  Sn2+  Sn3  1  0.00000000  0.50000000  0.50000000  0.6
  In2+  In4  1  0.50000000  0.00000000  0.50000000  0.4
  Sn2+  Sn5  1  0.50000000  0.00000000  0.50000000  0.6
  In2+  In6  1  0.50000000  0.50000000  0.00000000  0.4
  Sn2+  Sn7  1  0.50000000  0.50000000  0.00000000  0.6
  Te2-  Te8  1  0.50000000  0.50000000  0.50000000  1.0
  Te2-  Te9  1  0.50000000  0.00000000  0.00000000  1.0
  Te2-  Te10  1  0.00000000  0.50000000  0.00000000  1.0
  Te2-  Te11  1  0.00000000  0.00000000  0.50000000  1.0
