# generated using pymatgen
data_Sr2Cu(OF)2
_symmetry_space_group_name_H-M   'P 1'
_cell_length_a   3.96700000
_cell_length_b   3.96700000
_cell_length_c   12.81600000
_cell_angle_alpha   90.00000000
_cell_angle_beta   90.00000000
_cell_angle_gamma   90.00000000
_symmetry_Int_Tables_number   1
_chemical_formula_structural   Sr2Cu(OF)2
_chemical_formula_sum   'Sr4 Cu2 O4 F4'
_cell_volume   201.68653262
_cell_formula_units_Z   2
loop_
 _symmetry_equiv_pos_site_id
 _symmetry_equiv_pos_as_xyz
  1  'x, y, z'
loop_
 _atom_type_symbol
 _atom_type_oxidation_number
  Sr2+  2.0
  Cu2+  2.0
  O2-  -2.0
  F-  -1.0
loop_
 _atom_site_type_symbol
 _atom_site_label
 _atom_site_symmetry_multiplicity
 _atom_site_fract_x
 _atom_site_fract_y
 _atom_site_fract_z
 _atom_site_occupancy
  Sr2+  Sr0  1  0.00000000  0.00000000  0.63500000  1.0
  Sr2+  Sr1  1  0.00000000  0.00000000  0.36500000  1.0
  Sr2+  Sr2  1  0.50000000  0.50000000  0.13500000  1.0
  Sr2+  Sr3  1  0.50000000  0.50000000  0.86500000  1.0
  Cu2+  Cu4  1  0.00000000  0.00000000  0.00000000  1.0
  Cu2+  Cu5  1  0.50000000  0.50000000  0.50000000  1.0
  O2-  O6  1  0.50000000  0.00000000  0.00000000  0.5
  F-  F7  1  0.50000000  0.00000000  0.00000000  0.5
  O2-  O8  1  0.00000000  0.50000000  0.00000000  0.5
  F-  F9  1  0.00000000  0.50000000  0.00000000  0.5
  O2-  O10  1  0.00000000  0.50000000  0.50000000  0.5
  F-  F11  1  0.00000000  0.50000000  0.50000000  0.5
  O2-  O12  1  0.50000000  0.00000000  0.50000000  0.5
  F-  F13  1  0.50000000  0.00000000  0.50000000  0.5
  O2-  O14  1  0.50000000  0.00000000  0.75000000  0.5
  F-  F15  1  0.50000000  0.00000000  0.75000000  0.5
  O2-  O16  1  0.00000000  0.50000000  0.75000000  0.5
  F-  F17  1  0.00000000  0.50000000  0.75000000  0.5
  O2-  O18  1  0.50000000  0.00000000  0.25000000  0.5
  F-  F19  1  0.50000000  0.00000000  0.25000000  0.5
  O2-  O20  1  0.00000000  0.50000000  0.25000000  0.5
  F-  F21  1  0.00000000  0.50000000  0.25000000  0.5
