# generated using pymatgen
data_Ga8Pd0.6Au3.4
_symmetry_space_group_name_H-M   'P 1'
_cell_length_a   6.05600000
_cell_length_b   6.05600000
_cell_length_c   6.05600000
_cell_angle_alpha   90.00000000
_cell_angle_beta   90.00000000
_cell_angle_gamma   90.00000000
_symmetry_Int_Tables_number   1
_chemical_formula_structural   Ga8Pd0.6Au3.4
_chemical_formula_sum   'Ga8 Pd0.6 Au3.4'
_cell_volume   222.10462362
_cell_formula_units_Z   1
loop_
 _symmetry_equiv_pos_site_id
 _symmetry_equiv_pos_as_xyz
  1  'x, y, z'
loop_
 _atom_type_symbol
 _atom_type_oxidation_number
  Ga0+  0.0
  Pd0+  0.0
  Au0+  0.0
loop_
 _atom_site_type_symbol
 _atom_site_label
 _atom_site_symmetry_multiplicity
 _atom_site_fract_x
 _atom_site_fract_y
 _atom_site_fract_z
 _atom_site_occupancy
  Ga0+  Ga0  1  0.25000000  0.25000000  0.75000000  1.0
  Ga0+  Ga1  1  0.25000000  0.75000000  0.25000000  1.0
  Ga0+  Ga2  1  0.75000000  0.25000000  0.25000000  1.0
  Ga0+  Ga3  1  0.75000000  0.75000000  0.75000000  1.0
  Ga0+  Ga4  1  0.75000000  0.75000000  0.25000000  1.0
  Ga0+  Ga5  1  0.75000000  0.25000000  0.75000000  1.0
  Ga0+  Ga6  1  0.25000000  0.75000000  0.75000000  1.0
  Ga0+  Ga7  1  0.25000000  0.25000000  0.25000000  1.0
  Pd0+  Pd8  1  0.00000000  0.00000000  0.00000000  0.15
  Au0+  Au9  1  0.00000000  0.00000000  0.00000000  0.85
  Pd0+  Pd10  1  0.00000000  0.50000000  0.50000000  0.15
  Au0+  Au11  1  0.00000000  0.50000000  0.50000000  0.85
  Pd0+  Pd12  1  0.50000000  0.00000000  0.50000000  0.15
  Au0+  Au13  1  0.50000000  0.00000000  0.50000000  0.85
  Pd0+  Pd14  1  0.50000000  0.50000000  0.00000000  0.15
  Au0+  Au15  1  0.50000000  0.50000000  0.00000000  0.85
