# generated using pymatgen
data_Bi0.6Pb1.4
_symmetry_space_group_name_H-M   'P 1'
_cell_length_a   3.50580000
_cell_length_b   3.50580000
_cell_length_c   5.79590000
_cell_angle_alpha   90.00000000
_cell_angle_beta   90.00000000
_cell_angle_gamma   120.00000000
_symmetry_Int_Tables_number   1
_chemical_formula_structural   Bi0.6Pb1.4
_chemical_formula_sum   'Bi0.6 Pb1.4'
_cell_volume   61.69156517
_cell_formula_units_Z   1
loop_
 _symmetry_equiv_pos_site_id
 _symmetry_equiv_pos_as_xyz
  1  'x, y, z'
loop_
 _atom_type_symbol
 _atom_type_oxidation_number
  Bi0+  0.0
  Pb0+  0.0
loop_
 _atom_site_type_symbol
 _atom_site_label
 _atom_site_symmetry_multiplicity
 _atom_site_fract_x
 _atom_site_fract_y
 _atom_site_fract_z
 _atom_site_occupancy
  Bi0+  Bi0  1  0.33333333  0.66666667  0.25000000  0.3
  Pb0+  Pb1  1  0.33333333  0.66666667  0.25000000  0.7
  Bi0+  Bi2  1  0.66666667  0.33333333  0.75000000  0.3
  Pb0+  Pb3  1  0.66666667  0.33333333  0.75000000  0.7
