# generated using pymatgen
data_Bi2.5Pb1.5
_symmetry_space_group_name_H-M   'P 1'
_cell_length_a   3.45000000
_cell_length_b   3.45000000
_cell_length_c   11.30000000
_cell_angle_alpha   90.00000000
_cell_angle_beta   90.00000000
_cell_angle_gamma   120.00000000
_symmetry_Int_Tables_number   1
_chemical_formula_structural   Bi2.5Pb1.5
_chemical_formula_sum   'Bi2.5 Pb1.5'
_cell_volume   116.47890126
_cell_formula_units_Z   1
loop_
 _symmetry_equiv_pos_site_id
 _symmetry_equiv_pos_as_xyz
  1  'x, y, z'
loop_
 _atom_type_symbol
 _atom_type_oxidation_number
  Bi0+  0.0
  Pb0+  0.0
loop_
 _atom_site_type_symbol
 _atom_site_label
 _atom_site_symmetry_multiplicity
 _atom_site_fract_x
 _atom_site_fract_y
 _atom_site_fract_z
 _atom_site_occupancy
  Bi0+  Bi0  1  0.33333333  0.66666667  0.25000000  0.625
  Pb0+  Pb1  1  0.33333333  0.66666667  0.25000000  0.375
  Bi0+  Bi2  1  0.66666667  0.33333333  0.75000000  0.625
  Pb0+  Pb3  1  0.66666667  0.33333333  0.75000000  0.375
  Bi0+  Bi4  1  0.00000000  0.00000000  0.50000000  0.625
  Pb0+  Pb5  1  0.00000000  0.00000000  0.50000000  0.375
  Bi0+  Bi6  1  0.00000000  0.00000000  0.00000000  0.625
  Pb0+  Pb7  1  0.00000000  0.00000000  0.00000000  0.375
