# generated using pymatgen
data_InPb
_symmetry_space_group_name_H-M   'P 1'
_cell_length_a   4.84300000
_cell_length_b   4.84300000
_cell_length_c   4.84300000
_cell_angle_alpha   90.00000000
_cell_angle_beta   90.00000000
_cell_angle_gamma   90.00000000
_symmetry_Int_Tables_number   1
_chemical_formula_structural   InPb
_chemical_formula_sum   'In2 Pb2'
_cell_volume   113.59086511
_cell_formula_units_Z   2
loop_
 _symmetry_equiv_pos_site_id
 _symmetry_equiv_pos_as_xyz
  1  'x, y, z'
loop_
 _atom_type_symbol
 _atom_type_oxidation_number
  In0+  0.0
  Pb0+  0.0
loop_
 _atom_site_type_symbol
 _atom_site_label
 _atom_site_symmetry_multiplicity
 _atom_site_fract_x
 _atom_site_fract_y
 _atom_site_fract_z
 _atom_site_occupancy
  In0+  In0  1  0.00000000  0.00000000  0.00000000  0.5
  Pb0+  Pb1  1  0.00000000  0.00000000  0.00000000  0.5
  In0+  In2  1  0.00000000  0.50000000  0.50000000  0.5
  Pb0+  Pb3  1  0.00000000  0.50000000  0.50000000  0.5
  In0+  In4  1  0.50000000  0.00000000  0.50000000  0.5
  Pb0+  Pb5  1  0.50000000  0.00000000  0.50000000  0.5
  In0+  In6  1  0.50000000  0.50000000  0.00000000  0.5
  Pb0+  Pb7  1  0.50000000  0.50000000  0.00000000  0.5
