# generated using pymatgen
data_Tl1.8In0.2
_symmetry_space_group_name_H-M   'P 1'
_cell_length_a   3.44790000
_cell_length_b   3.44790000
_cell_length_c   5.52530000
_cell_angle_alpha   90.00000000
_cell_angle_beta   90.00000000
_cell_angle_gamma   120.00000000
_symmetry_Int_Tables_number   1
_chemical_formula_structural   Tl1.8In0.2
_chemical_formula_sum   'Tl1.8 In0.2'
_cell_volume   56.88474530
_cell_formula_units_Z   1
loop_
 _symmetry_equiv_pos_site_id
 _symmetry_equiv_pos_as_xyz
  1  'x, y, z'
loop_
 _atom_type_symbol
 _atom_type_oxidation_number
  Tl0+  0.0
  In0+  0.0
loop_
 _atom_site_type_symbol
 _atom_site_label
 _atom_site_symmetry_multiplicity
 _atom_site_fract_x
 _atom_site_fract_y
 _atom_site_fract_z
 _atom_site_occupancy
  Tl0+  Tl0  1  0.33333333  0.66666667  0.25000000  0.9
  In0+  In1  1  0.33333333  0.66666667  0.25000000  0.1
  Tl0+  Tl2  1  0.66666667  0.33333333  0.75000000  0.9
  In0+  In3  1  0.66666667  0.33333333  0.75000000  0.1
