# generated using pymatgen
data_Tl0.4In1.6
_symmetry_space_group_name_H-M   'P 1'
_cell_length_a   3.31400000
_cell_length_b   3.31400000
_cell_length_c   4.86200000
_cell_angle_alpha   90.00000000
_cell_angle_beta   90.00000000
_cell_angle_gamma   90.00000000
_symmetry_Int_Tables_number   1
_chemical_formula_structural   Tl0.4In1.6
_chemical_formula_sum   'Tl0.4 In1.6'
_cell_volume   53.39738175
_cell_formula_units_Z   1
loop_
 _symmetry_equiv_pos_site_id
 _symmetry_equiv_pos_as_xyz
  1  'x, y, z'
loop_
 _atom_type_symbol
 _atom_type_oxidation_number
  Tl0+  0.0
  In0+  0.0
loop_
 _atom_site_type_symbol
 _atom_site_label
 _atom_site_symmetry_multiplicity
 _atom_site_fract_x
 _atom_site_fract_y
 _atom_site_fract_z
 _atom_site_occupancy
  Tl0+  Tl0  1  0.00000000  0.00000000  0.00000000  0.2
  In0+  In1  1  0.00000000  0.00000000  0.00000000  0.8
  Tl0+  Tl2  1  0.50000000  0.50000000  0.50000000  0.2
  In0+  In3  1  0.50000000  0.50000000  0.50000000  0.8
