# generated using pymatgen
data_K(V3S4)2
_symmetry_space_group_name_H-M   'P 1'
_cell_length_a   9.18970000
_cell_length_b   9.18970000
_cell_length_c   3.28000000
_cell_angle_alpha   90.00000000
_cell_angle_beta   90.00000000
_cell_angle_gamma   120.00000000
_symmetry_Int_Tables_number   1
_chemical_formula_structural   K(V3S4)2
_chemical_formula_sum   'K1 V6 S8'
_cell_volume   239.88723757
_cell_formula_units_Z   1
loop_
 _symmetry_equiv_pos_site_id
 _symmetry_equiv_pos_as_xyz
  1  'x, y, z'
loop_
 _atom_type_symbol
 _atom_type_oxidation_number
  K+  1.0
  V2.5+  2.5
  S2-  -2.0
loop_
 _atom_site_type_symbol
 _atom_site_label
 _atom_site_symmetry_multiplicity
 _atom_site_fract_x
 _atom_site_fract_y
 _atom_site_fract_z
 _atom_site_occupancy
  K+  K0  1  0.00000000  0.00000000  0.50000000  0.5
  K+  K1  1  0.00000000  0.00000000  0.00000000  0.5
  V2.5+  V2  1  0.63400000  0.51300000  0.25000000  1.0
  V2.5+  V3  1  0.87900000  0.36600000  0.25000000  1.0
  V2.5+  V4  1  0.48700000  0.12100000  0.25000000  1.0
  V2.5+  V5  1  0.36600000  0.48700000  0.75000000  1.0
  V2.5+  V6  1  0.12100000  0.63400000  0.75000000  1.0
  V2.5+  V7  1  0.51300000  0.87900000  0.75000000  1.0
  S2-  S8  1  0.94900000  0.65200000  0.25000000  1.0
  S2-  S9  1  0.70300000  0.05100000  0.25000000  1.0
  S2-  S10  1  0.34800000  0.29700000  0.25000000  1.0
  S2-  S11  1  0.05100000  0.34800000  0.75000000  1.0
  S2-  S12  1  0.29700000  0.94900000  0.75000000  1.0
  S2-  S13  1  0.65200000  0.70300000  0.75000000  1.0
  S2-  S14  1  0.33333333  0.66666667  0.25000000  1.0
  S2-  S15  1  0.66666667  0.33333333  0.75000000  1.0
