# generated using pymatgen
data_Th4AgPd
_symmetry_space_group_name_H-M   'P 1'
_cell_length_a   7.43000000
_cell_length_b   7.43000000
_cell_length_c   5.91000000
_cell_angle_alpha   90.00000000
_cell_angle_beta   90.00000000
_cell_angle_gamma   90.00000000
_symmetry_Int_Tables_number   1
_chemical_formula_structural   Th4AgPd
_chemical_formula_sum   'Th8 Ag2 Pd2'
_cell_volume   326.26095900
_cell_formula_units_Z   2
loop_
 _symmetry_equiv_pos_site_id
 _symmetry_equiv_pos_as_xyz
  1  'x, y, z'
loop_
 _atom_type_symbol
 _atom_type_oxidation_number
  Th0+  0.0
  Ag0+  0.0
  Pd0+  0.0
loop_
 _atom_site_type_symbol
 _atom_site_label
 _atom_site_symmetry_multiplicity
 _atom_site_fract_x
 _atom_site_fract_y
 _atom_site_fract_z
 _atom_site_occupancy
  Th0+  Th0  1  0.65900000  0.15900000  0.50000000  1.0
  Th0+  Th1  1  0.34100000  0.84100000  0.50000000  1.0
  Th0+  Th2  1  0.34100000  0.15900000  0.00000000  1.0
  Th0+  Th3  1  0.65900000  0.84100000  0.00000000  1.0
  Th0+  Th4  1  0.15900000  0.34100000  0.50000000  1.0
  Th0+  Th5  1  0.84100000  0.65900000  0.50000000  1.0
  Th0+  Th6  1  0.15900000  0.65900000  0.00000000  1.0
  Th0+  Th7  1  0.84100000  0.34100000  0.00000000  1.0
  Ag0+  Ag8  1  0.00000000  0.00000000  0.25000000  0.5
  Pd0+  Pd9  1  0.00000000  0.00000000  0.25000000  0.5
  Ag0+  Ag10  1  0.00000000  0.00000000  0.75000000  0.5
  Pd0+  Pd11  1  0.00000000  0.00000000  0.75000000  0.5
  Ag0+  Ag12  1  0.50000000  0.50000000  0.75000000  0.5
  Pd0+  Pd13  1  0.50000000  0.50000000  0.75000000  0.5
  Ag0+  Ag14  1  0.50000000  0.50000000  0.25000000  0.5
  Pd0+  Pd15  1  0.50000000  0.50000000  0.25000000  0.5
