# generated using pymatgen
data_Al0.16Ga0.16Au3.68
_symmetry_space_group_name_H-M   'P 1'
_cell_length_a   4.07050000
_cell_length_b   4.07050000
_cell_length_c   4.07050000
_cell_angle_alpha   90.00000000
_cell_angle_beta   90.00000000
_cell_angle_gamma   90.00000000
_symmetry_Int_Tables_number   1
_chemical_formula_structural   Al0.16Ga0.16Au3.68
_chemical_formula_sum   'Al0.16 Ga0.16 Au3.68'
_cell_volume   67.44399340
_cell_formula_units_Z   1
loop_
 _symmetry_equiv_pos_site_id
 _symmetry_equiv_pos_as_xyz
  1  'x, y, z'
loop_
 _atom_type_symbol
 _atom_type_oxidation_number
  Al0+  0.0
  Ga0+  0.0
  Au0+  0.0
loop_
 _atom_site_type_symbol
 _atom_site_label
 _atom_site_symmetry_multiplicity
 _atom_site_fract_x
 _atom_site_fract_y
 _atom_site_fract_z
 _atom_site_occupancy
  Al0+  Al0  1  0.00000000  0.00000000  0.00000000  0.04
  Ga0+  Ga1  1  0.00000000  0.00000000  0.00000000  0.04
  Au0+  Au2  1  0.00000000  0.00000000  0.00000000  0.92
  Al0+  Al3  1  0.00000000  0.50000000  0.50000000  0.04
  Ga0+  Ga4  1  0.00000000  0.50000000  0.50000000  0.04
  Au0+  Au5  1  0.00000000  0.50000000  0.50000000  0.92
  Al0+  Al6  1  0.50000000  0.00000000  0.50000000  0.04
  Ga0+  Ga7  1  0.50000000  0.00000000  0.50000000  0.04
  Au0+  Au8  1  0.50000000  0.00000000  0.50000000  0.92
  Al0+  Al9  1  0.50000000  0.50000000  0.00000000  0.04
  Ga0+  Ga10  1  0.50000000  0.50000000  0.00000000  0.04
  Au0+  Au11  1  0.50000000  0.50000000  0.00000000  0.92
