# generated using pymatgen
data_In0.4Au1.6
_symmetry_space_group_name_H-M   'P 1'
_cell_length_a   2.91500000
_cell_length_b   2.91500000
_cell_length_c   4.79190000
_cell_angle_alpha   90.00000000
_cell_angle_beta   90.00000000
_cell_angle_gamma   120.00000000
_symmetry_Int_Tables_number   1
_chemical_formula_structural   In0.4Au1.6
_chemical_formula_sum   'In0.4 Au1.6'
_cell_volume   35.26269463
_cell_formula_units_Z   1
loop_
 _symmetry_equiv_pos_site_id
 _symmetry_equiv_pos_as_xyz
  1  'x, y, z'
loop_
 _atom_type_symbol
 _atom_type_oxidation_number
  In0+  0.0
  Au0+  0.0
loop_
 _atom_site_type_symbol
 _atom_site_label
 _atom_site_symmetry_multiplicity
 _atom_site_fract_x
 _atom_site_fract_y
 _atom_site_fract_z
 _atom_site_occupancy
  In0+  In0  1  0.33333333  0.66666667  0.25000000  0.2
  Au0+  Au1  1  0.33333333  0.66666667  0.25000000  0.8
  In0+  In2  1  0.66666667  0.33333333  0.75000000  0.2
  Au0+  Au3  1  0.66666667  0.33333333  0.75000000  0.8
