# generated using pymatgen
data_Ho8B32Ru4.8Rh27.2
_symmetry_space_group_name_H-M   'P 1'
_cell_length_a   7.47600000
_cell_length_b   7.47600000
_cell_length_c   14.87200000
_cell_angle_alpha   90.00000000
_cell_angle_beta   90.00000000
_cell_angle_gamma   90.00000000
_symmetry_Int_Tables_number   1
_chemical_formula_structural   Ho8B32Ru4.8Rh27.2
_chemical_formula_sum   'Ho8 B32 Ru4.8 Rh27.2'
_cell_volume   831.20464627
_cell_formula_units_Z   1
loop_
 _symmetry_equiv_pos_site_id
 _symmetry_equiv_pos_as_xyz
  1  'x, y, z'
loop_
 _atom_type_symbol
 _atom_type_oxidation_number
  Ho0+  0.0
  B0+  0.0
  Ru0+  0.0
  Rh0+  0.0
loop_
 _atom_site_type_symbol
 _atom_site_label
 _atom_site_symmetry_multiplicity
 _atom_site_fract_x
 _atom_site_fract_y
 _atom_site_fract_z
 _atom_site_occupancy
  Ho0+  Ho0  1  0.50000000  0.75000000  0.62500000  1.0
  Ho0+  Ho1  1  0.50000000  0.75000000  0.12500000  1.0
  Ho0+  Ho2  1  0.00000000  0.75000000  0.87500000  1.0
  Ho0+  Ho3  1  0.00000000  0.75000000  0.37500000  1.0
  Ho0+  Ho4  1  0.50000000  0.25000000  0.37500000  1.0
  Ho0+  Ho5  1  0.50000000  0.25000000  0.87500000  1.0
  Ho0+  Ho6  1  0.00000000  0.25000000  0.12500000  1.0
  Ho0+  Ho7  1  0.00000000  0.25000000  0.62500000  1.0
  B0+  B8  1  0.31800000  0.88900000  0.46100000  1.0
  B0+  B9  1  0.68200000  0.88900000  0.96100000  1.0
  B0+  B10  1  0.13900000  0.56800000  0.71100000  1.0
  B0+  B11  1  0.86100000  0.56800000  0.21100000  1.0
  B0+  B12  1  0.68200000  0.11100000  0.53900000  1.0
  B0+  B13  1  0.31800000  0.11100000  0.03900000  1.0
  B0+  B14  1  0.86100000  0.43200000  0.28900000  1.0
  B0+  B15  1  0.13900000  0.43200000  0.78900000  1.0
  B0+  B16  1  0.31800000  0.61100000  0.96100000  1.0
  B0+  B17  1  0.68200000  0.61100000  0.46100000  1.0
  B0+  B18  1  0.13900000  0.93200000  0.21100000  1.0
  B0+  B19  1  0.86100000  0.93200000  0.71100000  1.0
  B0+  B20  1  0.68200000  0.38900000  0.03900000  1.0
  B0+  B21  1  0.31800000  0.38900000  0.53900000  1.0
  B0+  B22  1  0.86100000  0.06800000  0.78900000  1.0
  B0+  B23  1  0.13900000  0.06800000  0.28900000  1.0
  B0+  B24  1  0.81800000  0.38900000  0.96100000  1.0
  B0+  B25  1  0.18200000  0.38900000  0.46100000  1.0
  B0+  B26  1  0.63900000  0.06800000  0.21100000  1.0
  B0+  B27  1  0.36100000  0.06800000  0.71100000  1.0
  B0+  B28  1  0.18200000  0.61100000  0.03900000  1.0
  B0+  B29  1  0.81800000  0.61100000  0.53900000  1.0
  B0+  B30  1  0.36100000  0.93200000  0.78900000  1.0
  B0+  B31  1  0.63900000  0.93200000  0.28900000  1.0
  B0+  B32  1  0.81800000  0.11100000  0.46100000  1.0
  B0+  B33  1  0.18200000  0.11100000  0.96100000  1.0
  B0+  B34  1  0.63900000  0.43200000  0.71100000  1.0
  B0+  B35  1  0.36100000  0.43200000  0.21100000  1.0
  B0+  B36  1  0.18200000  0.88900000  0.53900000  1.0
  B0+  B37  1  0.81800000  0.88900000  0.03900000  1.0
  B0+  B38  1  0.36100000  0.56800000  0.28900000  1.0
  B0+  B39  1  0.63900000  0.56800000  0.78900000  1.0
  Ru0+  Ru40  1  0.38800000  0.10000000  0.56200000  0.15
  Rh0+  Rh41  1  0.38800000  0.10000000  0.56200000  0.85
  Ru0+  Ru42  1  0.61200000  0.10000000  0.06200000  0.15
  Rh0+  Rh43  1  0.61200000  0.10000000  0.06200000  0.85
  Ru0+  Ru44  1  0.35000000  0.63800000  0.81200000  0.15
  Rh0+  Rh45  1  0.35000000  0.63800000  0.81200000  0.85
  Ru0+  Ru46  1  0.65000000  0.63800000  0.31200000  0.15
  Rh0+  Rh47  1  0.65000000  0.63800000  0.31200000  0.85
  Ru0+  Ru48  1  0.61200000  0.90000000  0.43800000  0.15
  Rh0+  Rh49  1  0.61200000  0.90000000  0.43800000  0.85
  Ru0+  Ru50  1  0.38800000  0.90000000  0.93800000  0.15
  Rh0+  Rh51  1  0.38800000  0.90000000  0.93800000  0.85
  Ru0+  Ru52  1  0.65000000  0.36200000  0.18800000  0.15
  Rh0+  Rh53  1  0.65000000  0.36200000  0.18800000  0.85
  Ru0+  Ru54  1  0.35000000  0.36200000  0.68800000  0.15
  Rh0+  Rh55  1  0.35000000  0.36200000  0.68800000  0.85
  Ru0+  Ru56  1  0.38800000  0.40000000  0.06200000  0.15
  Rh0+  Rh57  1  0.38800000  0.40000000  0.06200000  0.85
  Ru0+  Ru58  1  0.61200000  0.40000000  0.56200000  0.15
  Rh0+  Rh59  1  0.61200000  0.40000000  0.56200000  0.85
  Ru0+  Ru60  1  0.35000000  0.86200000  0.31200000  0.15
  Rh0+  Rh61  1  0.35000000  0.86200000  0.31200000  0.85
  Ru0+  Ru62  1  0.65000000  0.86200000  0.81200000  0.15
  Rh0+  Rh63  1  0.65000000  0.86200000  0.81200000  0.85
  Ru0+  Ru64  1  0.61200000  0.60000000  0.93800000  0.15
  Rh0+  Rh65  1  0.61200000  0.60000000  0.93800000  0.85
  Ru0+  Ru66  1  0.38800000  0.60000000  0.43800000  0.15
  Rh0+  Rh67  1  0.38800000  0.60000000  0.43800000  0.85
  Ru0+  Ru68  1  0.65000000  0.13800000  0.68800000  0.15
  Rh0+  Rh69  1  0.65000000  0.13800000  0.68800000  0.85
  Ru0+  Ru70  1  0.35000000  0.13800000  0.18800000  0.15
  Rh0+  Rh71  1  0.35000000  0.13800000  0.18800000  0.85
  Ru0+  Ru72  1  0.88800000  0.60000000  0.06200000  0.15
  Rh0+  Rh73  1  0.88800000  0.60000000  0.06200000  0.85
  Ru0+  Ru74  1  0.11200000  0.60000000  0.56200000  0.15
  Rh0+  Rh75  1  0.11200000  0.60000000  0.56200000  0.85
  Ru0+  Ru76  1  0.85000000  0.13800000  0.31200000  0.15
  Rh0+  Rh77  1  0.85000000  0.13800000  0.31200000  0.85
  Ru0+  Ru78  1  0.15000000  0.13800000  0.81200000  0.15
  Rh0+  Rh79  1  0.15000000  0.13800000  0.81200000  0.85
  Ru0+  Ru80  1  0.11200000  0.40000000  0.93800000  0.15
  Rh0+  Rh81  1  0.11200000  0.40000000  0.93800000  0.85
  Ru0+  Ru82  1  0.88800000  0.40000000  0.43800000  0.15
  Rh0+  Rh83  1  0.88800000  0.40000000  0.43800000  0.85
  Ru0+  Ru84  1  0.15000000  0.86200000  0.68800000  0.15
  Rh0+  Rh85  1  0.15000000  0.86200000  0.68800000  0.85
  Ru0+  Ru86  1  0.85000000  0.86200000  0.18800000  0.15
  Rh0+  Rh87  1  0.85000000  0.86200000  0.18800000  0.85
  Ru0+  Ru88  1  0.88800000  0.90000000  0.56200000  0.15
  Rh0+  Rh89  1  0.88800000  0.90000000  0.56200000  0.85
  Ru0+  Ru90  1  0.11200000  0.90000000  0.06200000  0.15
  Rh0+  Rh91  1  0.11200000  0.90000000  0.06200000  0.85
  Ru0+  Ru92  1  0.85000000  0.36200000  0.81200000  0.15
  Rh0+  Rh93  1  0.85000000  0.36200000  0.81200000  0.85
  Ru0+  Ru94  1  0.15000000  0.36200000  0.31200000  0.15
  Rh0+  Rh95  1  0.15000000  0.36200000  0.31200000  0.85
  Ru0+  Ru96  1  0.11200000  0.10000000  0.43800000  0.15
  Rh0+  Rh97  1  0.11200000  0.10000000  0.43800000  0.85
  Ru0+  Ru98  1  0.88800000  0.10000000  0.93800000  0.15
  Rh0+  Rh99  1  0.88800000  0.10000000  0.93800000  0.85
  Ru0+  Ru100  1  0.15000000  0.63800000  0.18800000  0.15
  Rh0+  Rh101  1  0.15000000  0.63800000  0.18800000  0.85
  Ru0+  Ru102  1  0.85000000  0.63800000  0.68800000  0.15
  Rh0+  Rh103  1  0.85000000  0.63800000  0.68800000  0.85
