# generated using pymatgen
data_La16Bi8.004Pb3.996
_symmetry_space_group_name_H-M   'P 1'
_cell_length_a   9.79800000
_cell_length_b   9.79800000
_cell_length_c   9.79800000
_cell_angle_alpha   90.00000000
_cell_angle_beta   90.00000000
_cell_angle_gamma   90.00000000
_symmetry_Int_Tables_number   1
_chemical_formula_structural   La16Bi8.004Pb3.996
_chemical_formula_sum   'La16 Bi8.004 Pb3.996'
_cell_volume   940.61587759
_cell_formula_units_Z   1
loop_
 _symmetry_equiv_pos_site_id
 _symmetry_equiv_pos_as_xyz
  1  'x, y, z'
loop_
 _atom_type_symbol
 _atom_type_oxidation_number
  La0+  0.0
  Bi0+  0.0
  Pb0+  0.0
loop_
 _atom_site_type_symbol
 _atom_site_label
 _atom_site_symmetry_multiplicity
 _atom_site_fract_x
 _atom_site_fract_y
 _atom_site_fract_z
 _atom_site_occupancy
  La0+  La0  1  0.17600000  0.67600000  0.82400000  1.0
  La0+  La1  1  0.82400000  0.17600000  0.67600000  1.0
  La0+  La2  1  0.67600000  0.82400000  0.17600000  1.0
  La0+  La3  1  0.32400000  0.32400000  0.32400000  1.0
  La0+  La4  1  0.57400000  0.42600000  0.92600000  1.0
  La0+  La5  1  0.42600000  0.92600000  0.57400000  1.0
  La0+  La6  1  0.92600000  0.57400000  0.42600000  1.0
  La0+  La7  1  0.07400000  0.07400000  0.07400000  1.0
  La0+  La8  1  0.67600000  0.17600000  0.32400000  1.0
  La0+  La9  1  0.32400000  0.67600000  0.17600000  1.0
  La0+  La10  1  0.17600000  0.32400000  0.67600000  1.0
  La0+  La11  1  0.82400000  0.82400000  0.82400000  1.0
  La0+  La12  1  0.07400000  0.92600000  0.42600000  1.0
  La0+  La13  1  0.92600000  0.42600000  0.07400000  1.0
  La0+  La14  1  0.42600000  0.07400000  0.92600000  1.0
  La0+  La15  1  0.57400000  0.57400000  0.57400000  1.0
  Bi0+  Bi16  1  0.25000000  0.37500000  0.00000000  0.667
  Pb0+  Pb17  1  0.25000000  0.37500000  0.00000000  0.333
  Bi0+  Bi18  1  0.75000000  0.87500000  0.50000000  0.667
  Pb0+  Pb19  1  0.75000000  0.87500000  0.50000000  0.333
  Bi0+  Bi20  1  0.75000000  0.12500000  0.00000000  0.667
  Pb0+  Pb21  1  0.75000000  0.12500000  0.00000000  0.333
  Bi0+  Bi22  1  0.25000000  0.62500000  0.50000000  0.667
  Pb0+  Pb23  1  0.25000000  0.62500000  0.50000000  0.333
  Bi0+  Bi24  1  0.00000000  0.25000000  0.37500000  0.667
  Pb0+  Pb25  1  0.00000000  0.25000000  0.37500000  0.333
  Bi0+  Bi26  1  0.50000000  0.75000000  0.87500000  0.667
  Pb0+  Pb27  1  0.50000000  0.75000000  0.87500000  0.333
  Bi0+  Bi28  1  0.00000000  0.75000000  0.12500000  0.667
  Pb0+  Pb29  1  0.00000000  0.75000000  0.12500000  0.333
  Bi0+  Bi30  1  0.50000000  0.25000000  0.62500000  0.667
  Pb0+  Pb31  1  0.50000000  0.25000000  0.62500000  0.333
  Bi0+  Bi32  1  0.37500000  0.00000000  0.25000000  0.667
  Pb0+  Pb33  1  0.37500000  0.00000000  0.25000000  0.333
  Bi0+  Bi34  1  0.87500000  0.50000000  0.75000000  0.667
  Pb0+  Pb35  1  0.87500000  0.50000000  0.75000000  0.333
  Bi0+  Bi36  1  0.12500000  0.00000000  0.75000000  0.667
  Pb0+  Pb37  1  0.12500000  0.00000000  0.75000000  0.333
  Bi0+  Bi38  1  0.62500000  0.50000000  0.25000000  0.667
  Pb0+  Pb39  1  0.62500000  0.50000000  0.25000000  0.333
