# generated using pymatgen
data_Lu1.6Th14.4C24
_symmetry_space_group_name_H-M   'P 1'
_cell_length_a   8.52780000
_cell_length_b   8.52780000
_cell_length_c   8.52780000
_cell_angle_alpha   90.00000000
_cell_angle_beta   90.00000000
_cell_angle_gamma   90.00000000
_symmetry_Int_Tables_number   1
_chemical_formula_structural   Lu1.6Th14.4C24
_chemical_formula_sum   'Lu1.6 Th14.4 C24'
_cell_volume   620.17037890
_cell_formula_units_Z   1
loop_
 _symmetry_equiv_pos_site_id
 _symmetry_equiv_pos_as_xyz
  1  'x, y, z'
loop_
 _atom_type_symbol
 _atom_type_oxidation_number
  Lu0+  0.0
  Th0+  0.0
  C0+  0.0
loop_
 _atom_site_type_symbol
 _atom_site_label
 _atom_site_symmetry_multiplicity
 _atom_site_fract_x
 _atom_site_fract_y
 _atom_site_fract_z
 _atom_site_occupancy
  Lu0+  Lu0  1  0.20000000  0.70000000  0.80000000  0.1
  Th0+  Th1  1  0.20000000  0.70000000  0.80000000  0.9
  Lu0+  Lu2  1  0.80000000  0.20000000  0.70000000  0.1
  Th0+  Th3  1  0.80000000  0.20000000  0.70000000  0.9
  Lu0+  Lu4  1  0.70000000  0.80000000  0.20000000  0.1
  Th0+  Th5  1  0.70000000  0.80000000  0.20000000  0.9
  Lu0+  Lu6  1  0.30000000  0.30000000  0.30000000  0.1
  Th0+  Th7  1  0.30000000  0.30000000  0.30000000  0.9
  Lu0+  Lu8  1  0.55000000  0.45000000  0.95000000  0.1
  Th0+  Th9  1  0.55000000  0.45000000  0.95000000  0.9
  Lu0+  Lu10  1  0.45000000  0.95000000  0.55000000  0.1
  Th0+  Th11  1  0.45000000  0.95000000  0.55000000  0.9
  Lu0+  Lu12  1  0.95000000  0.55000000  0.45000000  0.1
  Th0+  Th13  1  0.95000000  0.55000000  0.45000000  0.9
  Lu0+  Lu14  1  0.05000000  0.05000000  0.05000000  0.1
  Th0+  Th15  1  0.05000000  0.05000000  0.05000000  0.9
  Lu0+  Lu16  1  0.70000000  0.20000000  0.30000000  0.1
  Th0+  Th17  1  0.70000000  0.20000000  0.30000000  0.9
  Lu0+  Lu18  1  0.30000000  0.70000000  0.20000000  0.1
  Th0+  Th19  1  0.30000000  0.70000000  0.20000000  0.9
  Lu0+  Lu20  1  0.20000000  0.30000000  0.70000000  0.1
  Th0+  Th21  1  0.20000000  0.30000000  0.70000000  0.9
  Lu0+  Lu22  1  0.80000000  0.80000000  0.80000000  0.1
  Th0+  Th23  1  0.80000000  0.80000000  0.80000000  0.9
  Lu0+  Lu24  1  0.05000000  0.95000000  0.45000000  0.1
  Th0+  Th25  1  0.05000000  0.95000000  0.45000000  0.9
  Lu0+  Lu26  1  0.95000000  0.45000000  0.05000000  0.1
  Th0+  Th27  1  0.95000000  0.45000000  0.05000000  0.9
  Lu0+  Lu28  1  0.45000000  0.05000000  0.95000000  0.1
  Th0+  Th29  1  0.45000000  0.05000000  0.95000000  0.9
  Lu0+  Lu30  1  0.55000000  0.55000000  0.55000000  0.1
  Th0+  Th31  1  0.55000000  0.55000000  0.55000000  0.9
  C0+  C32  1  0.25000000  0.45500000  0.00000000  1.0
  C0+  C33  1  0.75000000  0.95500000  0.50000000  1.0
  C0+  C34  1  0.75000000  0.04500000  0.00000000  1.0
  C0+  C35  1  0.25000000  0.54500000  0.50000000  1.0
  C0+  C36  1  0.75000000  0.20500000  0.00000000  1.0
  C0+  C37  1  0.25000000  0.70500000  0.50000000  1.0
  C0+  C38  1  0.75000000  0.79500000  0.50000000  1.0
  C0+  C39  1  0.25000000  0.29500000  0.00000000  1.0
  C0+  C40  1  0.00000000  0.25000000  0.45500000  1.0
  C0+  C41  1  0.50000000  0.75000000  0.95500000  1.0
  C0+  C42  1  0.00000000  0.75000000  0.04500000  1.0
  C0+  C43  1  0.50000000  0.25000000  0.54500000  1.0
  C0+  C44  1  0.00000000  0.75000000  0.20500000  1.0
  C0+  C45  1  0.50000000  0.25000000  0.70500000  1.0
  C0+  C46  1  0.50000000  0.75000000  0.79500000  1.0
  C0+  C47  1  0.00000000  0.25000000  0.29500000  1.0
  C0+  C48  1  0.45500000  0.00000000  0.25000000  1.0
  C0+  C49  1  0.95500000  0.50000000  0.75000000  1.0
  C0+  C50  1  0.04500000  0.00000000  0.75000000  1.0
  C0+  C51  1  0.54500000  0.50000000  0.25000000  1.0
  C0+  C52  1  0.20500000  0.00000000  0.75000000  1.0
  C0+  C53  1  0.70500000  0.50000000  0.25000000  1.0
  C0+  C54  1  0.79500000  0.50000000  0.75000000  1.0
  C0+  C55  1  0.29500000  0.00000000  0.25000000  1.0
