# generated using pymatgen
data_Th14.4Sc1.6C24
_symmetry_space_group_name_H-M   'P 1'
_cell_length_a   8.53620000
_cell_length_b   8.53620000
_cell_length_c   8.53620000
_cell_angle_alpha   90.00000000
_cell_angle_beta   90.00000000
_cell_angle_gamma   90.00000000
_symmetry_Int_Tables_number   1
_chemical_formula_structural   Th14.4Sc1.6C24
_chemical_formula_sum   'Th14.4 Sc1.6 C24'
_cell_volume   622.00481366
_cell_formula_units_Z   1
loop_
 _symmetry_equiv_pos_site_id
 _symmetry_equiv_pos_as_xyz
  1  'x, y, z'
loop_
 _atom_type_symbol
 _atom_type_oxidation_number
  Th0+  0.0
  Sc0+  0.0
  C0+  0.0
loop_
 _atom_site_type_symbol
 _atom_site_label
 _atom_site_symmetry_multiplicity
 _atom_site_fract_x
 _atom_site_fract_y
 _atom_site_fract_z
 _atom_site_occupancy
  Th0+  Th0  1  0.20000000  0.70000000  0.80000000  0.9
  Sc0+  Sc1  1  0.20000000  0.70000000  0.80000000  0.1
  Th0+  Th2  1  0.80000000  0.20000000  0.70000000  0.9
  Sc0+  Sc3  1  0.80000000  0.20000000  0.70000000  0.1
  Th0+  Th4  1  0.70000000  0.80000000  0.20000000  0.9
  Sc0+  Sc5  1  0.70000000  0.80000000  0.20000000  0.1
  Th0+  Th6  1  0.30000000  0.30000000  0.30000000  0.9
  Sc0+  Sc7  1  0.30000000  0.30000000  0.30000000  0.1
  Th0+  Th8  1  0.55000000  0.45000000  0.95000000  0.9
  Sc0+  Sc9  1  0.55000000  0.45000000  0.95000000  0.1
  Th0+  Th10  1  0.45000000  0.95000000  0.55000000  0.9
  Sc0+  Sc11  1  0.45000000  0.95000000  0.55000000  0.1
  Th0+  Th12  1  0.95000000  0.55000000  0.45000000  0.9
  Sc0+  Sc13  1  0.95000000  0.55000000  0.45000000  0.1
  Th0+  Th14  1  0.05000000  0.05000000  0.05000000  0.9
  Sc0+  Sc15  1  0.05000000  0.05000000  0.05000000  0.1
  Th0+  Th16  1  0.70000000  0.20000000  0.30000000  0.9
  Sc0+  Sc17  1  0.70000000  0.20000000  0.30000000  0.1
  Th0+  Th18  1  0.30000000  0.70000000  0.20000000  0.9
  Sc0+  Sc19  1  0.30000000  0.70000000  0.20000000  0.1
  Th0+  Th20  1  0.20000000  0.30000000  0.70000000  0.9
  Sc0+  Sc21  1  0.20000000  0.30000000  0.70000000  0.1
  Th0+  Th22  1  0.80000000  0.80000000  0.80000000  0.9
  Sc0+  Sc23  1  0.80000000  0.80000000  0.80000000  0.1
  Th0+  Th24  1  0.05000000  0.95000000  0.45000000  0.9
  Sc0+  Sc25  1  0.05000000  0.95000000  0.45000000  0.1
  Th0+  Th26  1  0.95000000  0.45000000  0.05000000  0.9
  Sc0+  Sc27  1  0.95000000  0.45000000  0.05000000  0.1
  Th0+  Th28  1  0.45000000  0.05000000  0.95000000  0.9
  Sc0+  Sc29  1  0.45000000  0.05000000  0.95000000  0.1
  Th0+  Th30  1  0.55000000  0.55000000  0.55000000  0.9
  Sc0+  Sc31  1  0.55000000  0.55000000  0.55000000  0.1
  C0+  C32  1  0.25000000  0.46000000  0.00000000  1.0
  C0+  C33  1  0.75000000  0.96000000  0.50000000  1.0
  C0+  C34  1  0.75000000  0.04000000  0.00000000  1.0
  C0+  C35  1  0.25000000  0.54000000  0.50000000  1.0
  C0+  C36  1  0.75000000  0.21000000  0.00000000  1.0
  C0+  C37  1  0.25000000  0.71000000  0.50000000  1.0
  C0+  C38  1  0.75000000  0.79000000  0.50000000  1.0
  C0+  C39  1  0.25000000  0.29000000  0.00000000  1.0
  C0+  C40  1  0.00000000  0.25000000  0.46000000  1.0
  C0+  C41  1  0.50000000  0.75000000  0.96000000  1.0
  C0+  C42  1  0.00000000  0.75000000  0.04000000  1.0
  C0+  C43  1  0.50000000  0.25000000  0.54000000  1.0
  C0+  C44  1  0.00000000  0.75000000  0.21000000  1.0
  C0+  C45  1  0.50000000  0.25000000  0.71000000  1.0
  C0+  C46  1  0.50000000  0.75000000  0.79000000  1.0
  C0+  C47  1  0.00000000  0.25000000  0.29000000  1.0
  C0+  C48  1  0.46000000  0.00000000  0.25000000  1.0
  C0+  C49  1  0.96000000  0.50000000  0.75000000  1.0
  C0+  C50  1  0.04000000  0.00000000  0.75000000  1.0
  C0+  C51  1  0.54000000  0.50000000  0.25000000  1.0
  C0+  C52  1  0.21000000  0.00000000  0.75000000  1.0
  C0+  C53  1  0.71000000  0.50000000  0.25000000  1.0
  C0+  C54  1  0.79000000  0.50000000  0.75000000  1.0
  C0+  C55  1  0.29000000  0.00000000  0.25000000  1.0
