# generated using pymatgen
data_Y14.4Ru1.6C21.6
_symmetry_space_group_name_H-M   'P 1'
_cell_length_a   8.24080000
_cell_length_b   8.24080000
_cell_length_c   8.24080000
_cell_angle_alpha   90.00000000
_cell_angle_beta   90.00000000
_cell_angle_gamma   90.00000000
_symmetry_Int_Tables_number   1
_chemical_formula_structural   Y14.4Ru1.6C21.6
_chemical_formula_sum   'Y14.4 Ru1.6 C21.6'
_cell_volume   559.63919406
_cell_formula_units_Z   1
loop_
 _symmetry_equiv_pos_site_id
 _symmetry_equiv_pos_as_xyz
  1  'x, y, z'
loop_
 _atom_type_symbol
 _atom_type_oxidation_number
  Y0+  0.0
  Ru0+  0.0
  C0+  0.0
loop_
 _atom_site_type_symbol
 _atom_site_label
 _atom_site_symmetry_multiplicity
 _atom_site_fract_x
 _atom_site_fract_y
 _atom_site_fract_z
 _atom_site_occupancy
  Y0+  Y0  1  0.20000000  0.70000000  0.80000000  0.9
  Ru0+  Ru1  1  0.20000000  0.70000000  0.80000000  0.1
  Y0+  Y2  1  0.80000000  0.20000000  0.70000000  0.9
  Ru0+  Ru3  1  0.80000000  0.20000000  0.70000000  0.1
  Y0+  Y4  1  0.70000000  0.80000000  0.20000000  0.9
  Ru0+  Ru5  1  0.70000000  0.80000000  0.20000000  0.1
  Y0+  Y6  1  0.30000000  0.30000000  0.30000000  0.9
  Ru0+  Ru7  1  0.30000000  0.30000000  0.30000000  0.1
  Y0+  Y8  1  0.55000000  0.45000000  0.95000000  0.9
  Ru0+  Ru9  1  0.55000000  0.45000000  0.95000000  0.1
  Y0+  Y10  1  0.45000000  0.95000000  0.55000000  0.9
  Ru0+  Ru11  1  0.45000000  0.95000000  0.55000000  0.1
  Y0+  Y12  1  0.95000000  0.55000000  0.45000000  0.9
  Ru0+  Ru13  1  0.95000000  0.55000000  0.45000000  0.1
  Y0+  Y14  1  0.05000000  0.05000000  0.05000000  0.9
  Ru0+  Ru15  1  0.05000000  0.05000000  0.05000000  0.1
  Y0+  Y16  1  0.70000000  0.20000000  0.30000000  0.9
  Ru0+  Ru17  1  0.70000000  0.20000000  0.30000000  0.1
  Y0+  Y18  1  0.30000000  0.70000000  0.20000000  0.9
  Ru0+  Ru19  1  0.30000000  0.70000000  0.20000000  0.1
  Y0+  Y20  1  0.20000000  0.30000000  0.70000000  0.9
  Ru0+  Ru21  1  0.20000000  0.30000000  0.70000000  0.1
  Y0+  Y22  1  0.80000000  0.80000000  0.80000000  0.9
  Ru0+  Ru23  1  0.80000000  0.80000000  0.80000000  0.1
  Y0+  Y24  1  0.05000000  0.95000000  0.45000000  0.9
  Ru0+  Ru25  1  0.05000000  0.95000000  0.45000000  0.1
  Y0+  Y26  1  0.95000000  0.45000000  0.05000000  0.9
  Ru0+  Ru27  1  0.95000000  0.45000000  0.05000000  0.1
  Y0+  Y28  1  0.45000000  0.05000000  0.95000000  0.9
  Ru0+  Ru29  1  0.45000000  0.05000000  0.95000000  0.1
  Y0+  Y30  1  0.55000000  0.55000000  0.55000000  0.9
  Ru0+  Ru31  1  0.55000000  0.55000000  0.55000000  0.1
  C0+  C32  1  0.25000000  0.46000000  0.00000000  0.9
  C0+  C33  1  0.75000000  0.96000000  0.50000000  0.9
  C0+  C34  1  0.75000000  0.04000000  0.00000000  0.9
  C0+  C35  1  0.25000000  0.54000000  0.50000000  0.9
  C0+  C36  1  0.75000000  0.21000000  0.00000000  0.9
  C0+  C37  1  0.25000000  0.71000000  0.50000000  0.9
  C0+  C38  1  0.75000000  0.79000000  0.50000000  0.9
  C0+  C39  1  0.25000000  0.29000000  0.00000000  0.9
  C0+  C40  1  0.00000000  0.25000000  0.46000000  0.9
  C0+  C41  1  0.50000000  0.75000000  0.96000000  0.9
  C0+  C42  1  0.00000000  0.75000000  0.04000000  0.9
  C0+  C43  1  0.50000000  0.25000000  0.54000000  0.9
  C0+  C44  1  0.00000000  0.75000000  0.21000000  0.9
  C0+  C45  1  0.50000000  0.25000000  0.71000000  0.9
  C0+  C46  1  0.50000000  0.75000000  0.79000000  0.9
  C0+  C47  1  0.00000000  0.25000000  0.29000000  0.9
  C0+  C48  1  0.46000000  0.00000000  0.25000000  0.9
  C0+  C49  1  0.96000000  0.50000000  0.75000000  0.9
  C0+  C50  1  0.04000000  0.00000000  0.75000000  0.9
  C0+  C51  1  0.54000000  0.50000000  0.25000000  0.9
  C0+  C52  1  0.21000000  0.00000000  0.75000000  0.9
  C0+  C53  1  0.71000000  0.50000000  0.25000000  0.9
  C0+  C54  1  0.79000000  0.50000000  0.75000000  0.9
  C0+  C55  1  0.29000000  0.00000000  0.25000000  0.9
