# generated using pymatgen
data_Cu6.12Mo18S24
_symmetry_space_group_name_H-M   'P 1'
_cell_length_a   9.63000000
_cell_length_b   9.63000000
_cell_length_c   10.22000000
_cell_angle_alpha   90.00000000
_cell_angle_beta   90.00000000
_cell_angle_gamma   120.00000000
_symmetry_Int_Tables_number   1
_chemical_formula_structural   Cu6.12Mo18S24
_chemical_formula_sum   'Cu6.12 Mo18 S24'
_cell_volume   820.79386516
_cell_formula_units_Z   1
loop_
 _symmetry_equiv_pos_site_id
 _symmetry_equiv_pos_as_xyz
  1  'x, y, z'
loop_
 _atom_type_symbol
 _atom_type_oxidation_number
  Cu+  1.0
  Mo2.33+  2.33
  S2-  -2.0
loop_
 _atom_site_type_symbol
 _atom_site_label
 _atom_site_symmetry_multiplicity
 _atom_site_fract_x
 _atom_site_fract_y
 _atom_site_fract_z
 _atom_site_occupancy
  Cu+  Cu0  1  0.09200000  0.22400000  0.91000000  0.06
  Cu+  Cu1  1  0.13200000  0.90800000  0.91000000  0.06
  Cu+  Cu2  1  0.77600000  0.86800000  0.91000000  0.06
  Cu+  Cu3  1  0.90800000  0.77600000  0.09000000  0.06
  Cu+  Cu4  1  0.86800000  0.09200000  0.09000000  0.06
  Cu+  Cu5  1  0.22400000  0.13200000  0.09000000  0.06
  Cu+  Cu6  1  0.75866667  0.55733333  0.24333333  0.06
  Cu+  Cu7  1  0.79866667  0.24133333  0.24333333  0.06
  Cu+  Cu8  1  0.44266667  0.20133333  0.24333333  0.06
  Cu+  Cu9  1  0.57466667  0.10933333  0.42333333  0.06
  Cu+  Cu10  1  0.53466667  0.42533333  0.42333333  0.06
  Cu+  Cu11  1  0.89066667  0.46533333  0.42333333  0.06
  Cu+  Cu12  1  0.42533333  0.89066667  0.57666667  0.06
  Cu+  Cu13  1  0.46533333  0.57466667  0.57666667  0.06
  Cu+  Cu14  1  0.10933333  0.53466667  0.57666667  0.06
  Cu+  Cu15  1  0.24133333  0.44266667  0.75666667  0.06
  Cu+  Cu16  1  0.20133333  0.75866667  0.75666667  0.06
  Cu+  Cu17  1  0.55733333  0.79866667  0.75666667  0.06
  Cu+  Cu18  1  0.09100000  0.15100000  0.99600000  0.28
  Cu+  Cu19  1  0.06000000  0.90900000  0.99600000  0.28
  Cu+  Cu20  1  0.84900000  0.94000000  0.99600000  0.28
  Cu+  Cu21  1  0.90900000  0.84900000  0.00400000  0.28
  Cu+  Cu22  1  0.94000000  0.09100000  0.00400000  0.28
  Cu+  Cu23  1  0.15100000  0.06000000  0.00400000  0.28
  Cu+  Cu24  1  0.75766667  0.48433333  0.32933333  0.28
  Cu+  Cu25  1  0.72666667  0.24233333  0.32933333  0.28
  Cu+  Cu26  1  0.51566667  0.27333333  0.32933333  0.28
  Cu+  Cu27  1  0.57566667  0.18233333  0.33733333  0.28
  Cu+  Cu28  1  0.60666667  0.42433333  0.33733333  0.28
  Cu+  Cu29  1  0.81766667  0.39333333  0.33733333  0.28
  Cu+  Cu30  1  0.42433333  0.81766667  0.66266667  0.28
  Cu+  Cu31  1  0.39333333  0.57566667  0.66266667  0.28
  Cu+  Cu32  1  0.18233333  0.60666667  0.66266667  0.28
  Cu+  Cu33  1  0.24233333  0.51566667  0.67066667  0.28
  Cu+  Cu34  1  0.27333333  0.75766667  0.67066667  0.28
  Cu+  Cu35  1  0.48433333  0.72666667  0.67066667  0.28
  Mo2.33+  Mo36  1  0.98500000  0.15400000  0.61100000  1.0
  Mo2.33+  Mo37  1  0.16900000  0.01500000  0.61100000  1.0
  Mo2.33+  Mo38  1  0.84600000  0.83100000  0.61100000  1.0
  Mo2.33+  Mo39  1  0.01500000  0.84600000  0.38900000  1.0
  Mo2.33+  Mo40  1  0.83100000  0.98500000  0.38900000  1.0
  Mo2.33+  Mo41  1  0.15400000  0.16900000  0.38900000  1.0
  Mo2.33+  Mo42  1  0.65166667  0.48733333  0.94433333  1.0
  Mo2.33+  Mo43  1  0.83566667  0.34833333  0.94433333  1.0
  Mo2.33+  Mo44  1  0.51266667  0.16433333  0.94433333  1.0
  Mo2.33+  Mo45  1  0.68166667  0.17933333  0.72233333  1.0
  Mo2.33+  Mo46  1  0.49766667  0.31833333  0.72233333  1.0
  Mo2.33+  Mo47  1  0.82066667  0.50233333  0.72233333  1.0
  Mo2.33+  Mo48  1  0.31833333  0.82066667  0.27766667  1.0
  Mo2.33+  Mo49  1  0.50233333  0.68166667  0.27766667  1.0
  Mo2.33+  Mo50  1  0.17933333  0.49766667  0.27766667  1.0
  Mo2.33+  Mo51  1  0.34833333  0.51266667  0.05566667  1.0
  Mo2.33+  Mo52  1  0.16433333  0.65166667  0.05566667  1.0
  Mo2.33+  Mo53  1  0.48733333  0.83566667  0.05566667  1.0
  S2-  S54  1  0.00000000  0.00000000  0.79800000  1.0
  S2-  S55  1  0.00000000  0.00000000  0.20200000  1.0
  S2-  S56  1  0.66666667  0.33333333  0.13133333  1.0
  S2-  S57  1  0.66666667  0.33333333  0.53533333  1.0
  S2-  S58  1  0.33333333  0.66666667  0.46466667  1.0
  S2-  S59  1  0.33333333  0.66666667  0.86866667  1.0
  S2-  S60  1  0.69900000  0.05600000  0.92100000  1.0
  S2-  S61  1  0.35700000  0.30100000  0.92100000  1.0
  S2-  S62  1  0.94400000  0.64300000  0.92100000  1.0
  S2-  S63  1  0.30100000  0.94400000  0.07900000  1.0
  S2-  S64  1  0.64300000  0.69900000  0.07900000  1.0
  S2-  S65  1  0.05600000  0.35700000  0.07900000  1.0
  S2-  S66  1  0.36566667  0.38933333  0.25433333  1.0
  S2-  S67  1  0.02366667  0.63433333  0.25433333  1.0
  S2-  S68  1  0.61066667  0.97633333  0.25433333  1.0
  S2-  S69  1  0.96766667  0.27733333  0.41233333  1.0
  S2-  S70  1  0.30966667  0.03233333  0.41233333  1.0
  S2-  S71  1  0.72266667  0.69033333  0.41233333  1.0
  S2-  S72  1  0.03233333  0.72266667  0.58766667  1.0
  S2-  S73  1  0.69033333  0.96766667  0.58766667  1.0
  S2-  S74  1  0.27733333  0.30966667  0.58766667  1.0
  S2-  S75  1  0.63433333  0.61066667  0.74566667  1.0
  S2-  S76  1  0.97633333  0.36566667  0.74566667  1.0
  S2-  S77  1  0.38933333  0.02366667  0.74566667  1.0
