# generated using pymatgen
data_Zr8V13.6Fe2.4
_symmetry_space_group_name_H-M   'P 1'
_cell_length_a   7.36200000
_cell_length_b   7.36200000
_cell_length_c   7.36200000
_cell_angle_alpha   90.00000000
_cell_angle_beta   90.00000000
_cell_angle_gamma   90.00000000
_symmetry_Int_Tables_number   1
_chemical_formula_structural   Zr8V13.6Fe2.4
_chemical_formula_sum   'Zr8 V13.6 Fe2.4'
_cell_volume   399.01336193
_cell_formula_units_Z   1
loop_
 _symmetry_equiv_pos_site_id
 _symmetry_equiv_pos_as_xyz
  1  'x, y, z'
loop_
 _atom_type_symbol
 _atom_type_oxidation_number
  Zr0+  0.0
  V0+  0.0
  Fe0+  0.0
loop_
 _atom_site_type_symbol
 _atom_site_label
 _atom_site_symmetry_multiplicity
 _atom_site_fract_x
 _atom_site_fract_y
 _atom_site_fract_z
 _atom_site_occupancy
  Zr0+  Zr0  1  0.25000000  0.25000000  0.25000000  1.0
  Zr0+  Zr1  1  0.00000000  0.00000000  0.00000000  1.0
  Zr0+  Zr2  1  0.25000000  0.75000000  0.75000000  1.0
  Zr0+  Zr3  1  0.00000000  0.50000000  0.50000000  1.0
  Zr0+  Zr4  1  0.75000000  0.25000000  0.75000000  1.0
  Zr0+  Zr5  1  0.50000000  0.00000000  0.50000000  1.0
  Zr0+  Zr6  1  0.75000000  0.75000000  0.25000000  1.0
  Zr0+  Zr7  1  0.50000000  0.50000000  0.00000000  1.0
  V0+  V8  1  0.87500000  0.87500000  0.62500000  0.85
  Fe0+  Fe9  1  0.87500000  0.87500000  0.62500000  0.15
  V0+  V10  1  0.87500000  0.62500000  0.87500000  0.85
  Fe0+  Fe11  1  0.87500000  0.62500000  0.87500000  0.15
  V0+  V12  1  0.62500000  0.87500000  0.87500000  0.85
  Fe0+  Fe13  1  0.62500000  0.87500000  0.87500000  0.15
  V0+  V14  1  0.62500000  0.62500000  0.62500000  0.85
  Fe0+  Fe15  1  0.62500000  0.62500000  0.62500000  0.15
  V0+  V16  1  0.37500000  0.37500000  0.62500000  0.85
  Fe0+  Fe17  1  0.37500000  0.37500000  0.62500000  0.15
  V0+  V18  1  0.37500000  0.62500000  0.37500000  0.85
  Fe0+  Fe19  1  0.37500000  0.62500000  0.37500000  0.15
  V0+  V20  1  0.62500000  0.37500000  0.37500000  0.85
  Fe0+  Fe21  1  0.62500000  0.37500000  0.37500000  0.15
  V0+  V22  1  0.87500000  0.37500000  0.12500000  0.85
  Fe0+  Fe23  1  0.87500000  0.37500000  0.12500000  0.15
  V0+  V24  1  0.87500000  0.12500000  0.37500000  0.85
  Fe0+  Fe25  1  0.87500000  0.12500000  0.37500000  0.15
  V0+  V26  1  0.62500000  0.12500000  0.12500000  0.85
  Fe0+  Fe27  1  0.62500000  0.12500000  0.12500000  0.15
  V0+  V28  1  0.37500000  0.87500000  0.12500000  0.85
  Fe0+  Fe29  1  0.37500000  0.87500000  0.12500000  0.15
  V0+  V30  1  0.37500000  0.12500000  0.87500000  0.85
  Fe0+  Fe31  1  0.37500000  0.12500000  0.87500000  0.15
  V0+  V32  1  0.12500000  0.87500000  0.37500000  0.85
  Fe0+  Fe33  1  0.12500000  0.87500000  0.37500000  0.15
  V0+  V34  1  0.12500000  0.62500000  0.12500000  0.85
  Fe0+  Fe35  1  0.12500000  0.62500000  0.12500000  0.15
  V0+  V36  1  0.12500000  0.37500000  0.87500000  0.85
  Fe0+  Fe37  1  0.12500000  0.37500000  0.87500000  0.15
  V0+  V38  1  0.12500000  0.12500000  0.62500000  0.85
  Fe0+  Fe39  1  0.12500000  0.12500000  0.62500000  0.15
