# generated using pymatgen
data_Ba2Nd1Cu3O6.85
_symmetry_space_group_name_H-M   'P 1'
_cell_length_a   3.86870000
_cell_length_b   9.91500000
_cell_length_c   11.74770000
_cell_angle_alpha   90.00000000
_cell_angle_beta   90.00000000
_cell_angle_gamma   90.00000000
_symmetry_Int_Tables_number   1
_chemical_formula_structural   Ba2Nd1Cu3O6.85
_chemical_formula_sum   'Ba2 Nd1 Cu3 O6.85'
_cell_volume   450.62016211
_cell_formula_units_Z   1
loop_
 _symmetry_equiv_pos_site_id
 _symmetry_equiv_pos_as_xyz
  1  'x, y, z'
loop_
 _atom_type_symbol
 _atom_type_oxidation_number
  Ba2+  2.0
  Nd3+  3.0
  Cu2.23+  2.23
  O2-  -2.0
loop_
 _atom_site_type_symbol
 _atom_site_label
 _atom_site_symmetry_multiplicity
 _atom_site_fract_x
 _atom_site_fract_y
 _atom_site_fract_z
 _atom_site_occupancy
  Ba2+  Ba0  1  0.50000000  0.50000000  0.18460000  1.0
  Ba2+  Ba1  1  0.50000000  0.50000000  0.81540000  1.0
  Nd3+  Nd2  1  0.50000000  0.50000000  0.50000000  1.0
  Cu2.23+  Cu3  1  0.00000000  0.00000000  0.00000000  1.0
  Cu2.23+  Cu4  1  0.00000000  0.00000000  0.35050000  1.0
  Cu2.23+  Cu5  1  0.00000000  0.00000000  0.64950000  1.0
  O2-  O6  1  0.00000000  0.00000000  0.15590000  1.0
  O2-  O7  1  0.00000000  0.00000000  0.84410000  1.0
  O2-  O8  1  0.00000000  0.50000000  0.37210000  1.0
  O2-  O9  1  0.00000000  0.50000000  0.62790000  1.0
  O2-  O10  1  0.50000000  0.00000000  0.37150000  1.0
  O2-  O11  1  0.50000000  0.00000000  0.62850000  1.0
  O2-  O12  1  0.50000000  0.00000000  0.00000000  0.14
  O2-  O13  1  0.00000000  0.50000000  0.00000000  0.71
