# generated using pymatgen
data_V6Ga0.96Si1.04
_symmetry_space_group_name_H-M   'P 1'
_cell_length_a   4.75400000
_cell_length_b   4.75400000
_cell_length_c   4.75400000
_cell_angle_alpha   90.00000000
_cell_angle_beta   90.00000000
_cell_angle_gamma   90.00000000
_symmetry_Int_Tables_number   1
_chemical_formula_structural   V6Ga0.96Si1.04
_chemical_formula_sum   'V6 Ga0.96 Si1.04'
_cell_volume   107.44285306
_cell_formula_units_Z   1
loop_
 _symmetry_equiv_pos_site_id
 _symmetry_equiv_pos_as_xyz
  1  'x, y, z'
loop_
 _atom_type_symbol
 _atom_type_oxidation_number
  V0+  0.0
  Ga0+  0.0
  Si0+  0.0
loop_
 _atom_site_type_symbol
 _atom_site_label
 _atom_site_symmetry_multiplicity
 _atom_site_fract_x
 _atom_site_fract_y
 _atom_site_fract_z
 _atom_site_occupancy
  V0+  V0  1  0.00000000  0.50000000  0.75000000  1.0
  V0+  V1  1  0.50000000  0.25000000  0.00000000  1.0
  V0+  V2  1  0.75000000  0.00000000  0.50000000  1.0
  V0+  V3  1  0.00000000  0.50000000  0.25000000  1.0
  V0+  V4  1  0.50000000  0.75000000  0.00000000  1.0
  V0+  V5  1  0.25000000  0.00000000  0.50000000  1.0
  Ga0+  Ga6  1  0.50000000  0.50000000  0.50000000  0.48
  Si0+  Si7  1  0.50000000  0.50000000  0.50000000  0.52
  Ga0+  Ga8  1  0.00000000  0.00000000  0.00000000  0.48
  Si0+  Si9  1  0.00000000  0.00000000  0.00000000  0.52
