# generated using pymatgen
data_V25.6Ga26.4
_symmetry_space_group_name_H-M   'P 1'
_cell_length_a   9.14000000
_cell_length_b   9.14000000
_cell_length_c   9.14000000
_cell_angle_alpha   90.00000000
_cell_angle_beta   90.00000000
_cell_angle_gamma   90.00000000
_symmetry_Int_Tables_number   1
_chemical_formula_structural   V25.6Ga26.4
_chemical_formula_sum   'V25.6 Ga26.4'
_cell_volume   763.55194400
_cell_formula_units_Z   1
loop_
 _symmetry_equiv_pos_site_id
 _symmetry_equiv_pos_as_xyz
  1  'x, y, z'
loop_
 _atom_type_symbol
 _atom_type_oxidation_number
  V0+  0.0
  Ga0+  0.0
loop_
 _atom_site_type_symbol
 _atom_site_label
 _atom_site_symmetry_multiplicity
 _atom_site_fract_x
 _atom_site_fract_y
 _atom_site_fract_z
 _atom_site_occupancy
  V0+  V0  1  0.89400000  0.89400000  0.10600000  1.0
  V0+  V1  1  0.89400000  0.10600000  0.89400000  1.0
  V0+  V2  1  0.10600000  0.89400000  0.89400000  1.0
  V0+  V3  1  0.10600000  0.10600000  0.10600000  1.0
  V0+  V4  1  0.39400000  0.39400000  0.60600000  1.0
  V0+  V5  1  0.39400000  0.60600000  0.39400000  1.0
  V0+  V6  1  0.60600000  0.39400000  0.39400000  1.0
  V0+  V7  1  0.60600000  0.60600000  0.60600000  1.0
  V0+  V8  1  0.17000000  0.17000000  0.83000000  1.0
  V0+  V9  1  0.17000000  0.83000000  0.17000000  1.0
  V0+  V10  1  0.83000000  0.17000000  0.17000000  1.0
  V0+  V11  1  0.83000000  0.83000000  0.83000000  1.0
  V0+  V12  1  0.67000000  0.67000000  0.33000000  1.0
  V0+  V13  1  0.67000000  0.33000000  0.67000000  1.0
  V0+  V14  1  0.33000000  0.67000000  0.67000000  1.0
  V0+  V15  1  0.33000000  0.33000000  0.33000000  1.0
  V0+  V16  1  0.64800000  0.00000000  0.00000000  0.8
  Ga0+  Ga17  1  0.64800000  0.00000000  0.00000000  0.2
  V0+  V18  1  0.00000000  0.00000000  0.35200000  0.8
  Ga0+  Ga19  1  0.00000000  0.00000000  0.35200000  0.2
  V0+  V20  1  0.00000000  0.64800000  0.00000000  0.8
  Ga0+  Ga21  1  0.00000000  0.64800000  0.00000000  0.2
  V0+  V22  1  0.00000000  0.00000000  0.64800000  0.8
  Ga0+  Ga23  1  0.00000000  0.00000000  0.64800000  0.2
  V0+  V24  1  0.00000000  0.35200000  0.00000000  0.8
  Ga0+  Ga25  1  0.00000000  0.35200000  0.00000000  0.2
  V0+  V26  1  0.35200000  0.00000000  0.00000000  0.8
  Ga0+  Ga27  1  0.35200000  0.00000000  0.00000000  0.2
  V0+  V28  1  0.14800000  0.50000000  0.50000000  0.8
  Ga0+  Ga29  1  0.14800000  0.50000000  0.50000000  0.2
  V0+  V30  1  0.50000000  0.50000000  0.85200000  0.8
  Ga0+  Ga31  1  0.50000000  0.50000000  0.85200000  0.2
  V0+  V32  1  0.50000000  0.14800000  0.50000000  0.8
  Ga0+  Ga33  1  0.50000000  0.14800000  0.50000000  0.2
  V0+  V34  1  0.50000000  0.50000000  0.14800000  0.8
  Ga0+  Ga35  1  0.50000000  0.50000000  0.14800000  0.2
  V0+  V36  1  0.50000000  0.85200000  0.50000000  0.8
  Ga0+  Ga37  1  0.50000000  0.85200000  0.50000000  0.2
  V0+  V38  1  0.85200000  0.50000000  0.50000000  0.8
  Ga0+  Ga39  1  0.85200000  0.50000000  0.50000000  0.2
  Ga0+  Ga40  1  0.96100000  0.69100000  0.30900000  1.0
  Ga0+  Ga41  1  0.69100000  0.69100000  0.03900000  1.0
  Ga0+  Ga42  1  0.69100000  0.96100000  0.30900000  1.0
  Ga0+  Ga43  1  0.96100000  0.30900000  0.69100000  1.0
  Ga0+  Ga44  1  0.69100000  0.30900000  0.96100000  1.0
  Ga0+  Ga45  1  0.69100000  0.03900000  0.69100000  1.0
  Ga0+  Ga46  1  0.03900000  0.69100000  0.69100000  1.0
  Ga0+  Ga47  1  0.30900000  0.69100000  0.96100000  1.0
  Ga0+  Ga48  1  0.30900000  0.96100000  0.69100000  1.0
  Ga0+  Ga49  1  0.03900000  0.30900000  0.30900000  1.0
  Ga0+  Ga50  1  0.30900000  0.30900000  0.03900000  1.0
  Ga0+  Ga51  1  0.30900000  0.03900000  0.30900000  1.0
  Ga0+  Ga52  1  0.46100000  0.19100000  0.80900000  1.0
  Ga0+  Ga53  1  0.19100000  0.19100000  0.53900000  1.0
  Ga0+  Ga54  1  0.19100000  0.46100000  0.80900000  1.0
  Ga0+  Ga55  1  0.46100000  0.80900000  0.19100000  1.0
  Ga0+  Ga56  1  0.19100000  0.80900000  0.46100000  1.0
  Ga0+  Ga57  1  0.19100000  0.53900000  0.19100000  1.0
  Ga0+  Ga58  1  0.53900000  0.19100000  0.19100000  1.0
  Ga0+  Ga59  1  0.80900000  0.19100000  0.46100000  1.0
  Ga0+  Ga60  1  0.80900000  0.46100000  0.19100000  1.0
  Ga0+  Ga61  1  0.53900000  0.80900000  0.80900000  1.0
  Ga0+  Ga62  1  0.80900000  0.80900000  0.53900000  1.0
  Ga0+  Ga63  1  0.80900000  0.53900000  0.80900000  1.0
