# generated using pymatgen
data_K4In1.98Mo30Se38
_symmetry_space_group_name_H-M   'P 1'
_cell_length_a   9.79000000
_cell_length_b   9.79000000
_cell_length_c   19.59000000
_cell_angle_alpha   90.00000000
_cell_angle_beta   90.00000000
_cell_angle_gamma   120.00000000
_symmetry_Int_Tables_number   1
_chemical_formula_structural   K4In1.98Mo30Se38
_chemical_formula_sum   'K4 In1.98 Mo30 Se38'
_cell_volume   1626.03710364
_cell_formula_units_Z   1
loop_
 _symmetry_equiv_pos_site_id
 _symmetry_equiv_pos_as_xyz
  1  'x, y, z'
loop_
 _atom_type_symbol
 _atom_type_oxidation_number
  K+  1.0
  In3+  3.0
  Mo2+  2.0
  Mo3+  3.0
  Se2-  -2.0
loop_
 _atom_site_type_symbol
 _atom_site_label
 _atom_site_symmetry_multiplicity
 _atom_site_fract_x
 _atom_site_fract_y
 _atom_site_fract_z
 _atom_site_occupancy
  K+  K0  1  0.33333333  0.66666667  0.36900000  1.0
  K+  K1  1  0.66666667  0.33333333  0.86900000  1.0
  K+  K2  1  0.66666667  0.33333333  0.63100000  1.0
  K+  K3  1  0.33333333  0.66666667  0.13100000  1.0
  In3+  In4  1  0.17100000  0.96600000  0.25000000  0.33
  In3+  In5  1  0.79500000  0.82900000  0.25000000  0.33
  In3+  In6  1  0.03400000  0.20500000  0.25000000  0.33
  In3+  In7  1  0.82900000  0.03400000  0.75000000  0.33
  In3+  In8  1  0.20500000  0.17100000  0.75000000  0.33
  In3+  In9  1  0.96600000  0.79500000  0.75000000  0.33
  Mo2+  Mo10  1  0.85000000  0.83500000  0.44300000  1.0
  Mo2+  Mo11  1  0.98500000  0.15000000  0.44300000  1.0
  Mo2+  Mo12  1  0.16500000  0.01500000  0.44300000  1.0
  Mo2+  Mo13  1  0.15000000  0.16500000  0.94300000  1.0
  Mo2+  Mo14  1  0.01500000  0.85000000  0.94300000  1.0
  Mo2+  Mo15  1  0.83500000  0.98500000  0.94300000  1.0
  Mo2+  Mo16  1  0.15000000  0.16500000  0.55700000  1.0
  Mo2+  Mo17  1  0.01500000  0.85000000  0.55700000  1.0
  Mo2+  Mo18  1  0.83500000  0.98500000  0.55700000  1.0
  Mo2+  Mo19  1  0.85000000  0.83500000  0.05700000  1.0
  Mo2+  Mo20  1  0.98500000  0.15000000  0.05700000  1.0
  Mo2+  Mo21  1  0.16500000  0.01500000  0.05700000  1.0
  Mo2+  Mo22  1  0.81300000  0.49500000  0.36600000  1.0
  Mo2+  Mo23  1  0.68200000  0.18700000  0.36600000  1.0
  Mo2+  Mo24  1  0.50500000  0.31800000  0.36600000  1.0
  Mo2+  Mo25  1  0.18700000  0.50500000  0.86600000  1.0
  Mo2+  Mo26  1  0.31800000  0.81300000  0.86600000  1.0
  Mo2+  Mo27  1  0.49500000  0.68200000  0.86600000  1.0
  Mo2+  Mo28  1  0.18700000  0.50500000  0.63400000  1.0
  Mo2+  Mo29  1  0.31800000  0.81300000  0.63400000  1.0
  Mo2+  Mo30  1  0.49500000  0.68200000  0.63400000  1.0
  Mo2+  Mo31  1  0.81300000  0.49500000  0.13400000  1.0
  Mo2+  Mo32  1  0.68200000  0.18700000  0.13400000  1.0
  Mo2+  Mo33  1  0.50500000  0.31800000  0.13400000  1.0
  Mo3+  Mo34  1  0.65900000  0.49000000  0.25000000  1.0
  Mo3+  Mo35  1  0.83100000  0.34100000  0.25000000  1.0
  Mo3+  Mo36  1  0.51000000  0.16900000  0.25000000  1.0
  Mo3+  Mo37  1  0.34100000  0.51000000  0.75000000  1.0
  Mo3+  Mo38  1  0.16900000  0.65900000  0.75000000  1.0
  Mo3+  Mo39  1  0.49000000  0.83100000  0.75000000  1.0
  Se2-  Se40  1  0.00000000  0.00000000  0.34000000  1.0
  Se2-  Se41  1  0.00000000  0.00000000  0.84000000  1.0
  Se2-  Se42  1  0.00000000  0.00000000  0.66000000  1.0
  Se2-  Se43  1  0.00000000  0.00000000  0.16000000  1.0
  Se2-  Se44  1  0.33333333  0.66666667  0.96800000  1.0
  Se2-  Se45  1  0.66666667  0.33333333  0.46800000  1.0
  Se2-  Se46  1  0.66666667  0.33333333  0.03200000  1.0
  Se2-  Se47  1  0.33333333  0.66666667  0.53200000  1.0
  Se2-  Se48  1  0.96400000  0.64600000  0.25000000  1.0
  Se2-  Se49  1  0.68200000  0.03600000  0.25000000  1.0
  Se2-  Se50  1  0.35400000  0.31800000  0.25000000  1.0
  Se2-  Se51  1  0.03600000  0.35400000  0.75000000  1.0
  Se2-  Se52  1  0.31800000  0.96400000  0.75000000  1.0
  Se2-  Se53  1  0.64600000  0.68200000  0.75000000  1.0
  Se2-  Se54  1  0.03300000  0.71200000  0.44900000  1.0
  Se2-  Se55  1  0.67900000  0.96700000  0.44900000  1.0
  Se2-  Se56  1  0.28800000  0.32100000  0.44900000  1.0
  Se2-  Se57  1  0.96700000  0.28800000  0.94900000  1.0
  Se2-  Se58  1  0.32100000  0.03300000  0.94900000  1.0
  Se2-  Se59  1  0.71200000  0.67900000  0.94900000  1.0
  Se2-  Se60  1  0.96700000  0.28800000  0.55100000  1.0
  Se2-  Se61  1  0.32100000  0.03300000  0.55100000  1.0
  Se2-  Se62  1  0.71200000  0.67900000  0.55100000  1.0
  Se2-  Se63  1  0.03300000  0.71200000  0.05100000  1.0
  Se2-  Se64  1  0.67900000  0.96700000  0.05100000  1.0
  Se2-  Se65  1  0.28800000  0.32100000  0.05100000  1.0
  Se2-  Se66  1  0.63500000  0.62200000  0.36000000  1.0
  Se2-  Se67  1  0.98700000  0.36500000  0.36000000  1.0
  Se2-  Se68  1  0.37800000  0.01300000  0.36000000  1.0
  Se2-  Se69  1  0.36500000  0.37800000  0.86000000  1.0
  Se2-  Se70  1  0.01300000  0.63500000  0.86000000  1.0
  Se2-  Se71  1  0.62200000  0.98700000  0.86000000  1.0
  Se2-  Se72  1  0.36500000  0.37800000  0.64000000  1.0
  Se2-  Se73  1  0.01300000  0.63500000  0.64000000  1.0
  Se2-  Se74  1  0.62200000  0.98700000  0.64000000  1.0
  Se2-  Se75  1  0.63500000  0.62200000  0.14000000  1.0
  Se2-  Se76  1  0.98700000  0.36500000  0.14000000  1.0
  Se2-  Se77  1  0.37800000  0.01300000  0.14000000  1.0
