# generated using pymatgen
data_In5.98Mo30Se38
_symmetry_space_group_name_H-M   'P 1'
_cell_length_a   9.80000000
_cell_length_b   9.80000000
_cell_length_c   19.49000000
_cell_angle_alpha   90.00000000
_cell_angle_beta   90.00000000
_cell_angle_gamma   120.00000000
_symmetry_Int_Tables_number   1
_chemical_formula_structural   In5.98Mo30Se38
_chemical_formula_sum   'In5.98 Mo30 Se38'
_cell_volume   1621.04332490
_cell_formula_units_Z   1
loop_
 _symmetry_equiv_pos_site_id
 _symmetry_equiv_pos_as_xyz
  1  'x, y, z'
loop_
 _atom_type_symbol
 _atom_type_oxidation_number
  In3+  3.0
  Mo1.93+  1.93
  Se2-  -2.0
loop_
 _atom_site_type_symbol
 _atom_site_label
 _atom_site_symmetry_multiplicity
 _atom_site_fract_x
 _atom_site_fract_y
 _atom_site_fract_z
 _atom_site_occupancy
  In3+  In0  1  0.33333333  0.66666667  0.37100000  1.0
  In3+  In1  1  0.66666667  0.33333333  0.87100000  1.0
  In3+  In2  1  0.66666667  0.33333333  0.62900000  1.0
  In3+  In3  1  0.33333333  0.66666667  0.12900000  1.0
  In3+  In4  1  0.16700000  0.95400000  0.25000000  0.33
  In3+  In5  1  0.78700000  0.83300000  0.25000000  0.33
  In3+  In6  1  0.04600000  0.21300000  0.25000000  0.33
  In3+  In7  1  0.83300000  0.04600000  0.75000000  0.33
  In3+  In8  1  0.21300000  0.16700000  0.75000000  0.33
  In3+  In9  1  0.95400000  0.78700000  0.75000000  0.33
  Mo1.93+  Mo10  1  0.65600000  0.48700000  0.25000000  1.0
  Mo1.93+  Mo11  1  0.83100000  0.34400000  0.25000000  1.0
  Mo1.93+  Mo12  1  0.51300000  0.16900000  0.25000000  1.0
  Mo1.93+  Mo13  1  0.34400000  0.51300000  0.75000000  1.0
  Mo1.93+  Mo14  1  0.16900000  0.65600000  0.75000000  1.0
  Mo1.93+  Mo15  1  0.48700000  0.83100000  0.75000000  1.0
  Mo1.93+  Mo16  1  0.84900000  0.83500000  0.44300000  1.0
  Mo1.93+  Mo17  1  0.98600000  0.15100000  0.44300000  1.0
  Mo1.93+  Mo18  1  0.16500000  0.01400000  0.44300000  1.0
  Mo1.93+  Mo19  1  0.15100000  0.16500000  0.94300000  1.0
  Mo1.93+  Mo20  1  0.01400000  0.84900000  0.94300000  1.0
  Mo1.93+  Mo21  1  0.83500000  0.98600000  0.94300000  1.0
  Mo1.93+  Mo22  1  0.15100000  0.16500000  0.55700000  1.0
  Mo1.93+  Mo23  1  0.01400000  0.84900000  0.55700000  1.0
  Mo1.93+  Mo24  1  0.83500000  0.98600000  0.55700000  1.0
  Mo1.93+  Mo25  1  0.84900000  0.83500000  0.05700000  1.0
  Mo1.93+  Mo26  1  0.98600000  0.15100000  0.05700000  1.0
  Mo1.93+  Mo27  1  0.16500000  0.01400000  0.05700000  1.0
  Mo1.93+  Mo28  1  0.81400000  0.49600000  0.36700000  1.0
  Mo1.93+  Mo29  1  0.68200000  0.18600000  0.36700000  1.0
  Mo1.93+  Mo30  1  0.50400000  0.31800000  0.36700000  1.0
  Mo1.93+  Mo31  1  0.18600000  0.50400000  0.86700000  1.0
  Mo1.93+  Mo32  1  0.31800000  0.81400000  0.86700000  1.0
  Mo1.93+  Mo33  1  0.49600000  0.68200000  0.86700000  1.0
  Mo1.93+  Mo34  1  0.18600000  0.50400000  0.63300000  1.0
  Mo1.93+  Mo35  1  0.31800000  0.81400000  0.63300000  1.0
  Mo1.93+  Mo36  1  0.49600000  0.68200000  0.63300000  1.0
  Mo1.93+  Mo37  1  0.81400000  0.49600000  0.13300000  1.0
  Mo1.93+  Mo38  1  0.68200000  0.18600000  0.13300000  1.0
  Mo1.93+  Mo39  1  0.50400000  0.31800000  0.13300000  1.0
  Se2-  Se40  1  0.00000000  0.00000000  0.33800000  1.0
  Se2-  Se41  1  0.00000000  0.00000000  0.83800000  1.0
  Se2-  Se42  1  0.00000000  0.00000000  0.66200000  1.0
  Se2-  Se43  1  0.00000000  0.00000000  0.16200000  1.0
  Se2-  Se44  1  0.33333333  0.66666667  0.97000000  1.0
  Se2-  Se45  1  0.66666667  0.33333333  0.47000000  1.0
  Se2-  Se46  1  0.66666667  0.33333333  0.03000000  1.0
  Se2-  Se47  1  0.33333333  0.66666667  0.53000000  1.0
  Se2-  Se48  1  0.96000000  0.64600000  0.25000000  1.0
  Se2-  Se49  1  0.68600000  0.04000000  0.25000000  1.0
  Se2-  Se50  1  0.35400000  0.31400000  0.25000000  1.0
  Se2-  Se51  1  0.04000000  0.35400000  0.75000000  1.0
  Se2-  Se52  1  0.31400000  0.96000000  0.75000000  1.0
  Se2-  Se53  1  0.64600000  0.68600000  0.75000000  1.0
  Se2-  Se54  1  0.03400000  0.71400000  0.44900000  1.0
  Se2-  Se55  1  0.68000000  0.96600000  0.44900000  1.0
  Se2-  Se56  1  0.28600000  0.32000000  0.44900000  1.0
  Se2-  Se57  1  0.96600000  0.28600000  0.94900000  1.0
  Se2-  Se58  1  0.32000000  0.03400000  0.94900000  1.0
  Se2-  Se59  1  0.71400000  0.68000000  0.94900000  1.0
  Se2-  Se60  1  0.96600000  0.28600000  0.55100000  1.0
  Se2-  Se61  1  0.32000000  0.03400000  0.55100000  1.0
  Se2-  Se62  1  0.71400000  0.68000000  0.55100000  1.0
  Se2-  Se63  1  0.03400000  0.71400000  0.05100000  1.0
  Se2-  Se64  1  0.68000000  0.96600000  0.05100000  1.0
  Se2-  Se65  1  0.28600000  0.32000000  0.05100000  1.0
  Se2-  Se66  1  0.63000000  0.62100000  0.36100000  1.0
  Se2-  Se67  1  0.99100000  0.37000000  0.36100000  1.0
  Se2-  Se68  1  0.37900000  0.00900000  0.36100000  1.0
  Se2-  Se69  1  0.37000000  0.37900000  0.86100000  1.0
  Se2-  Se70  1  0.00900000  0.63000000  0.86100000  1.0
  Se2-  Se71  1  0.62100000  0.99100000  0.86100000  1.0
  Se2-  Se72  1  0.37000000  0.37900000  0.63900000  1.0
  Se2-  Se73  1  0.00900000  0.63000000  0.63900000  1.0
  Se2-  Se74  1  0.62100000  0.99100000  0.63900000  1.0
  Se2-  Se75  1  0.63000000  0.62100000  0.13900000  1.0
  Se2-  Se76  1  0.99100000  0.37000000  0.13900000  1.0
  Se2-  Se77  1  0.37900000  0.00900000  0.13900000  1.0
