# generated using pymatgen
data_Lu5Sc5(Si5Ir2)4
_symmetry_space_group_name_H-M   'P 1'
_cell_length_a   12.40000000
_cell_length_b   12.40000000
_cell_length_c   4.12000000
_cell_angle_alpha   90.00000000
_cell_angle_beta   90.00000000
_cell_angle_gamma   90.00000000
_symmetry_Int_Tables_number   1
_chemical_formula_structural   Lu5Sc5(Si5Ir2)4
_chemical_formula_sum   'Lu5 Sc5 Si20 Ir8'
_cell_volume   633.49120000
_cell_formula_units_Z   1
loop_
 _symmetry_equiv_pos_site_id
 _symmetry_equiv_pos_as_xyz
  1  'x, y, z'
loop_
 _atom_type_symbol
 _atom_type_oxidation_number
  Lu0+  0.0
  Sc0+  0.0
  Si0+  0.0
  Ir0+  0.0
loop_
 _atom_site_type_symbol
 _atom_site_label
 _atom_site_symmetry_multiplicity
 _atom_site_fract_x
 _atom_site_fract_y
 _atom_site_fract_z
 _atom_site_occupancy
  Lu0+  Lu0  1  0.50000000  0.50000000  0.00000000  0.5
  Sc0+  Sc1  1  0.50000000  0.50000000  0.00000000  0.5
  Lu0+  Lu2  1  0.00000000  0.00000000  0.00000000  0.5
  Sc0+  Sc3  1  0.00000000  0.00000000  0.00000000  0.5
  Lu0+  Lu4  1  0.17400000  0.67400000  0.50000000  0.5
  Sc0+  Sc5  1  0.17400000  0.67400000  0.50000000  0.5
  Lu0+  Lu6  1  0.82600000  0.32600000  0.50000000  0.5
  Sc0+  Sc7  1  0.82600000  0.32600000  0.50000000  0.5
  Lu0+  Lu8  1  0.32600000  0.17400000  0.50000000  0.5
  Sc0+  Sc9  1  0.32600000  0.17400000  0.50000000  0.5
  Lu0+  Lu10  1  0.67400000  0.82600000  0.50000000  0.5
  Sc0+  Sc11  1  0.67400000  0.82600000  0.50000000  0.5
  Lu0+  Lu12  1  0.38500000  0.88500000  0.50000000  0.5
  Sc0+  Sc13  1  0.38500000  0.88500000  0.50000000  0.5
  Lu0+  Lu14  1  0.61500000  0.11500000  0.50000000  0.5
  Sc0+  Sc15  1  0.61500000  0.11500000  0.50000000  0.5
  Lu0+  Lu16  1  0.11500000  0.38500000  0.50000000  0.5
  Sc0+  Sc17  1  0.11500000  0.38500000  0.50000000  0.5
  Lu0+  Lu18  1  0.88500000  0.61500000  0.50000000  0.5
  Sc0+  Sc19  1  0.88500000  0.61500000  0.50000000  0.5
  Si0+  Si20  1  0.06300000  0.56300000  0.00000000  1.0
  Si0+  Si21  1  0.93700000  0.43700000  0.00000000  1.0
  Si0+  Si22  1  0.43700000  0.06300000  0.00000000  1.0
  Si0+  Si23  1  0.56300000  0.93700000  0.00000000  1.0
  Si0+  Si24  1  0.70000000  0.66300000  0.00000000  1.0
  Si0+  Si25  1  0.30000000  0.33700000  0.00000000  1.0
  Si0+  Si26  1  0.80000000  0.16300000  0.00000000  1.0
  Si0+  Si27  1  0.20000000  0.83700000  0.00000000  1.0
  Si0+  Si28  1  0.66300000  0.30000000  0.00000000  1.0
  Si0+  Si29  1  0.33700000  0.70000000  0.00000000  1.0
  Si0+  Si30  1  0.16300000  0.20000000  0.00000000  1.0
  Si0+  Si31  1  0.83700000  0.80000000  0.00000000  1.0
  Si0+  Si32  1  0.50400000  0.65600000  0.50000000  1.0
  Si0+  Si33  1  0.49600000  0.34400000  0.50000000  1.0
  Si0+  Si34  1  0.99600000  0.15600000  0.50000000  1.0
  Si0+  Si35  1  0.00400000  0.84400000  0.50000000  1.0
  Si0+  Si36  1  0.65600000  0.49600000  0.50000000  1.0
  Si0+  Si37  1  0.34400000  0.50400000  0.50000000  1.0
  Si0+  Si38  1  0.15600000  0.00400000  0.50000000  1.0
  Si0+  Si39  1  0.84400000  0.99600000  0.50000000  1.0
  Ir0+  Ir40  1  0.51900000  0.74500000  0.00000000  1.0
  Ir0+  Ir41  1  0.48100000  0.25500000  0.00000000  1.0
  Ir0+  Ir42  1  0.98100000  0.24500000  0.00000000  1.0
  Ir0+  Ir43  1  0.01900000  0.75500000  0.00000000  1.0
  Ir0+  Ir44  1  0.74500000  0.48100000  0.00000000  1.0
  Ir0+  Ir45  1  0.25500000  0.51900000  0.00000000  1.0
  Ir0+  Ir46  1  0.24500000  0.01900000  0.00000000  1.0
  Ir0+  Ir47  1  0.75500000  0.98100000  0.00000000  1.0
