# generated using pymatgen
data_La3YSb3
_symmetry_space_group_name_H-M   'P 1'
_cell_length_a   9.55300000
_cell_length_b   9.55300000
_cell_length_c   9.55300000
_cell_angle_alpha   90.00000000
_cell_angle_beta   90.00000000
_cell_angle_gamma   90.00000000
_symmetry_Int_Tables_number   1
_chemical_formula_structural   La3YSb3
_chemical_formula_sum   'La12 Y4 Sb12'
_cell_volume   871.80495538
_cell_formula_units_Z   4
loop_
 _symmetry_equiv_pos_site_id
 _symmetry_equiv_pos_as_xyz
  1  'x, y, z'
loop_
 _atom_type_symbol
 _atom_type_oxidation_number
  La0+  0.0
  Y0+  0.0
  Sb0+  0.0
loop_
 _atom_site_type_symbol
 _atom_site_label
 _atom_site_symmetry_multiplicity
 _atom_site_fract_x
 _atom_site_fract_y
 _atom_site_fract_z
 _atom_site_occupancy
  La0+  La0  1  0.17600000  0.67600000  0.82400000  0.75
  Y0+  Y1  1  0.17600000  0.67600000  0.82400000  0.25
  La0+  La2  1  0.82400000  0.17600000  0.67600000  0.75
  Y0+  Y3  1  0.82400000  0.17600000  0.67600000  0.25
  La0+  La4  1  0.67600000  0.82400000  0.17600000  0.75
  Y0+  Y5  1  0.67600000  0.82400000  0.17600000  0.25
  La0+  La6  1  0.32400000  0.32400000  0.32400000  0.75
  Y0+  Y7  1  0.32400000  0.32400000  0.32400000  0.25
  La0+  La8  1  0.57400000  0.42600000  0.92600000  0.75
  Y0+  Y9  1  0.57400000  0.42600000  0.92600000  0.25
  La0+  La10  1  0.42600000  0.92600000  0.57400000  0.75
  Y0+  Y11  1  0.42600000  0.92600000  0.57400000  0.25
  La0+  La12  1  0.92600000  0.57400000  0.42600000  0.75
  Y0+  Y13  1  0.92600000  0.57400000  0.42600000  0.25
  La0+  La14  1  0.07400000  0.07400000  0.07400000  0.75
  Y0+  Y15  1  0.07400000  0.07400000  0.07400000  0.25
  La0+  La16  1  0.67600000  0.17600000  0.32400000  0.75
  Y0+  Y17  1  0.67600000  0.17600000  0.32400000  0.25
  La0+  La18  1  0.32400000  0.67600000  0.17600000  0.75
  Y0+  Y19  1  0.32400000  0.67600000  0.17600000  0.25
  La0+  La20  1  0.17600000  0.32400000  0.67600000  0.75
  Y0+  Y21  1  0.17600000  0.32400000  0.67600000  0.25
  La0+  La22  1  0.82400000  0.82400000  0.82400000  0.75
  Y0+  Y23  1  0.82400000  0.82400000  0.82400000  0.25
  La0+  La24  1  0.07400000  0.92600000  0.42600000  0.75
  Y0+  Y25  1  0.07400000  0.92600000  0.42600000  0.25
  La0+  La26  1  0.92600000  0.42600000  0.07400000  0.75
  Y0+  Y27  1  0.92600000  0.42600000  0.07400000  0.25
  La0+  La28  1  0.42600000  0.07400000  0.92600000  0.75
  Y0+  Y29  1  0.42600000  0.07400000  0.92600000  0.25
  La0+  La30  1  0.57400000  0.57400000  0.57400000  0.75
  Y0+  Y31  1  0.57400000  0.57400000  0.57400000  0.25
  Sb0+  Sb32  1  0.25000000  0.37500000  0.00000000  1.0
  Sb0+  Sb33  1  0.75000000  0.87500000  0.50000000  1.0
  Sb0+  Sb34  1  0.75000000  0.12500000  0.00000000  1.0
  Sb0+  Sb35  1  0.25000000  0.62500000  0.50000000  1.0
  Sb0+  Sb36  1  0.00000000  0.25000000  0.37500000  1.0
  Sb0+  Sb37  1  0.50000000  0.75000000  0.87500000  1.0
  Sb0+  Sb38  1  0.00000000  0.75000000  0.12500000  1.0
  Sb0+  Sb39  1  0.50000000  0.25000000  0.62500000  1.0
  Sb0+  Sb40  1  0.37500000  0.00000000  0.25000000  1.0
  Sb0+  Sb41  1  0.87500000  0.50000000  0.75000000  1.0
  Sb0+  Sb42  1  0.12500000  0.00000000  0.75000000  1.0
  Sb0+  Sb43  1  0.62500000  0.50000000  0.25000000  1.0
