# generated using pymatgen
data_Mo6Pb(SeS)4
_symmetry_space_group_name_H-M   'P 1'
_cell_length_a   9.41000000
_cell_length_b   9.41000000
_cell_length_c   11.65400000
_cell_angle_alpha   90.00000000
_cell_angle_beta   90.00000000
_cell_angle_gamma   120.00000000
_symmetry_Int_Tables_number   1
_chemical_formula_structural   Mo6Pb(SeS)4
_chemical_formula_sum   'Mo18 Pb3 Se12 S12'
_cell_volume   893.68587188
_cell_formula_units_Z   3
loop_
 _symmetry_equiv_pos_site_id
 _symmetry_equiv_pos_as_xyz
  1  'x, y, z'
loop_
 _atom_type_symbol
 _atom_type_oxidation_number
  Mo2.33+  2.33
  Pb2+  2.0
  Se2-  -2.0
  S2-  -2.0
loop_
 _atom_site_type_symbol
 _atom_site_label
 _atom_site_symmetry_multiplicity
 _atom_site_fract_x
 _atom_site_fract_y
 _atom_site_fract_z
 _atom_site_occupancy
  Mo2.33+  Mo0  1  0.94380000  0.11580000  0.59600000  1.0
  Mo2.33+  Mo1  1  0.17200000  0.05620000  0.59600000  1.0
  Mo2.33+  Mo2  1  0.88420000  0.82800000  0.59600000  1.0
  Mo2.33+  Mo3  1  0.05620000  0.88420000  0.40400000  1.0
  Mo2.33+  Mo4  1  0.82800000  0.94380000  0.40400000  1.0
  Mo2.33+  Mo5  1  0.11580000  0.17200000  0.40400000  1.0
  Mo2.33+  Mo6  1  0.61046667  0.44913333  0.92933333  1.0
  Mo2.33+  Mo7  1  0.83866667  0.38953333  0.92933333  1.0
  Mo2.33+  Mo8  1  0.55086667  0.16133333  0.92933333  1.0
  Mo2.33+  Mo9  1  0.72286667  0.21753333  0.73733333  1.0
  Mo2.33+  Mo10  1  0.49466667  0.27713333  0.73733333  1.0
  Mo2.33+  Mo11  1  0.78246667  0.50533333  0.73733333  1.0
  Mo2.33+  Mo12  1  0.27713333  0.78246667  0.26266667  1.0
  Mo2.33+  Mo13  1  0.50533333  0.72286667  0.26266667  1.0
  Mo2.33+  Mo14  1  0.21753333  0.49466667  0.26266667  1.0
  Mo2.33+  Mo15  1  0.38953333  0.55086667  0.07066667  1.0
  Mo2.33+  Mo16  1  0.16133333  0.61046667  0.07066667  1.0
  Mo2.33+  Mo17  1  0.44913333  0.83866667  0.07066667  1.0
  Pb2+  Pb18  1  0.00000000  0.00000000  0.00000000  1.0
  Pb2+  Pb19  1  0.66666667  0.33333333  0.33333333  1.0
  Pb2+  Pb20  1  0.33333333  0.66666667  0.66666667  1.0
  Se2-  Se21  1  0.00000000  0.00000000  0.75700000  0.5
  S2-  S22  1  0.00000000  0.00000000  0.75700000  0.5
  Se2-  Se23  1  0.00000000  0.00000000  0.24300000  0.5
  S2-  S24  1  0.00000000  0.00000000  0.24300000  0.5
  Se2-  Se25  1  0.66666667  0.33333333  0.09033333  0.5
  S2-  S26  1  0.66666667  0.33333333  0.09033333  0.5
  Se2-  Se27  1  0.66666667  0.33333333  0.57633333  0.5
  S2-  S28  1  0.66666667  0.33333333  0.57633333  0.5
  Se2-  Se29  1  0.33333333  0.66666667  0.42366667  0.5
  S2-  S30  1  0.33333333  0.66666667  0.42366667  0.5
  Se2-  Se31  1  0.33333333  0.66666667  0.90966667  0.5
  S2-  S32  1  0.33333333  0.66666667  0.90966667  0.5
  Se2-  Se33  1  0.70200000  0.04000000  0.91700000  0.5
  S2-  S34  1  0.70200000  0.04000000  0.91700000  0.5
  Se2-  Se35  1  0.33800000  0.29800000  0.91700000  0.5
  S2-  S36  1  0.33800000  0.29800000  0.91700000  0.5
  Se2-  Se37  1  0.96000000  0.66200000  0.91700000  0.5
  S2-  S38  1  0.96000000  0.66200000  0.91700000  0.5
  Se2-  Se39  1  0.29800000  0.96000000  0.08300000  0.5
  S2-  S40  1  0.29800000  0.96000000  0.08300000  0.5
  Se2-  Se41  1  0.66200000  0.70200000  0.08300000  0.5
  S2-  S42  1  0.66200000  0.70200000  0.08300000  0.5
  Se2-  Se43  1  0.04000000  0.33800000  0.08300000  0.5
  S2-  S44  1  0.04000000  0.33800000  0.08300000  0.5
  Se2-  Se45  1  0.36866667  0.37333333  0.25033333  0.5
  S2-  S46  1  0.36866667  0.37333333  0.25033333  0.5
  Se2-  Se47  1  0.00466667  0.63133333  0.25033333  0.5
  S2-  S48  1  0.00466667  0.63133333  0.25033333  0.5
  Se2-  Se49  1  0.62666667  0.99533333  0.25033333  0.5
  S2-  S50  1  0.62666667  0.99533333  0.25033333  0.5
  Se2-  Se51  1  0.96466667  0.29333333  0.41633333  0.5
  S2-  S52  1  0.96466667  0.29333333  0.41633333  0.5
  Se2-  Se53  1  0.32866667  0.03533333  0.41633333  0.5
  S2-  S54  1  0.32866667  0.03533333  0.41633333  0.5
  Se2-  Se55  1  0.70666667  0.67133333  0.41633333  0.5
  S2-  S56  1  0.70666667  0.67133333  0.41633333  0.5
  Se2-  Se57  1  0.03533333  0.70666667  0.58366667  0.5
  S2-  S58  1  0.03533333  0.70666667  0.58366667  0.5
  Se2-  Se59  1  0.67133333  0.96466667  0.58366667  0.5
  S2-  S60  1  0.67133333  0.96466667  0.58366667  0.5
  Se2-  Se61  1  0.29333333  0.32866667  0.58366667  0.5
  S2-  S62  1  0.29333333  0.32866667  0.58366667  0.5
  Se2-  Se63  1  0.63133333  0.62666667  0.74966667  0.5
  S2-  S64  1  0.63133333  0.62666667  0.74966667  0.5
  Se2-  Se65  1  0.99533333  0.36866667  0.74966667  0.5
  S2-  S66  1  0.99533333  0.36866667  0.74966667  0.5
  Se2-  Se67  1  0.37333333  0.00466667  0.74966667  0.5
  S2-  S68  1  0.37333333  0.00466667  0.74966667  0.5
