# generated using pymatgen
data_Mo3(SeS)2
_symmetry_space_group_name_H-M   'P 1'
_cell_length_a   9.36400000
_cell_length_b   9.36400000
_cell_length_c   11.00600000
_cell_angle_alpha   90.00000000
_cell_angle_beta   90.00000000
_cell_angle_gamma   120.00000000
_symmetry_Int_Tables_number   1
_chemical_formula_structural   Mo3(SeS)2
_chemical_formula_sum   'Mo18 Se12 S12'
_cell_volume   835.76263360
_cell_formula_units_Z   6
loop_
 _symmetry_equiv_pos_site_id
 _symmetry_equiv_pos_as_xyz
  1  'x, y, z'
loop_
 _atom_type_symbol
 _atom_type_oxidation_number
  Mo2.67+  2.67
  Se2-  -2.0
  S2-  -2.0
loop_
 _atom_site_type_symbol
 _atom_site_label
 _atom_site_symmetry_multiplicity
 _atom_site_fract_x
 _atom_site_fract_y
 _atom_site_fract_z
 _atom_site_occupancy
  Mo2.67+  Mo0  1  0.98400000  0.82600000  0.60900000  1.0
  Mo2.67+  Mo1  1  0.84200000  0.01600000  0.60900000  1.0
  Mo2.67+  Mo2  1  0.17400000  0.15800000  0.60900000  1.0
  Mo2.67+  Mo3  1  0.01600000  0.17400000  0.39100000  1.0
  Mo2.67+  Mo4  1  0.15800000  0.98400000  0.39100000  1.0
  Mo2.67+  Mo5  1  0.82600000  0.84200000  0.39100000  1.0
  Mo2.67+  Mo6  1  0.65066667  0.15933333  0.94233333  1.0
  Mo2.67+  Mo7  1  0.50866667  0.34933333  0.94233333  1.0
  Mo2.67+  Mo8  1  0.84066667  0.49133333  0.94233333  1.0
  Mo2.67+  Mo9  1  0.68266667  0.50733333  0.72433333  1.0
  Mo2.67+  Mo10  1  0.82466667  0.31733333  0.72433333  1.0
  Mo2.67+  Mo11  1  0.49266667  0.17533333  0.72433333  1.0
  Mo2.67+  Mo12  1  0.31733333  0.49266667  0.27566667  1.0
  Mo2.67+  Mo13  1  0.17533333  0.68266667  0.27566667  1.0
  Mo2.67+  Mo14  1  0.50733333  0.82466667  0.27566667  1.0
  Mo2.67+  Mo15  1  0.34933333  0.84066667  0.05766667  1.0
  Mo2.67+  Mo16  1  0.49133333  0.65066667  0.05766667  1.0
  Mo2.67+  Mo17  1  0.15933333  0.50866667  0.05766667  1.0
  Se2-  Se18  1  0.00000000  0.00000000  0.79200000  0.5
  S2-  S19  1  0.00000000  0.00000000  0.79200000  0.5
  Se2-  Se20  1  0.00000000  0.00000000  0.20800000  0.5
  S2-  S21  1  0.00000000  0.00000000  0.20800000  0.5
  Se2-  Se22  1  0.66666667  0.33333333  0.12533333  0.5
  S2-  S23  1  0.66666667  0.33333333  0.12533333  0.5
  Se2-  Se24  1  0.66666667  0.33333333  0.54133333  0.5
  S2-  S25  1  0.66666667  0.33333333  0.54133333  0.5
  Se2-  Se26  1  0.33333333  0.66666667  0.45866667  0.5
  S2-  S27  1  0.33333333  0.66666667  0.45866667  0.5
  Se2-  Se28  1  0.33333333  0.66666667  0.87466667  0.5
  S2-  S29  1  0.33333333  0.66666667  0.87466667  0.5
  Se2-  Se30  1  0.28900000  0.96300000  0.58300000  0.5
  S2-  S31  1  0.28900000  0.96300000  0.58300000  0.5
  Se2-  Se32  1  0.67400000  0.71100000  0.58300000  0.5
  S2-  S33  1  0.67400000  0.71100000  0.58300000  0.5
  Se2-  Se34  1  0.03700000  0.32600000  0.58300000  0.5
  S2-  S35  1  0.03700000  0.32600000  0.58300000  0.5
  Se2-  Se36  1  0.71100000  0.03700000  0.41700000  0.5
  S2-  S37  1  0.71100000  0.03700000  0.41700000  0.5
  Se2-  Se38  1  0.32600000  0.28900000  0.41700000  0.5
  S2-  S39  1  0.32600000  0.28900000  0.41700000  0.5
  Se2-  Se40  1  0.96300000  0.67400000  0.41700000  0.5
  S2-  S41  1  0.96300000  0.67400000  0.41700000  0.5
  Se2-  Se42  1  0.95566667  0.29633333  0.91633333  0.5
  S2-  S43  1  0.95566667  0.29633333  0.91633333  0.5
  Se2-  Se44  1  0.34066667  0.04433333  0.91633333  0.5
  S2-  S45  1  0.34066667  0.04433333  0.91633333  0.5
  Se2-  Se46  1  0.70366667  0.65933333  0.91633333  0.5
  S2-  S47  1  0.70366667  0.65933333  0.91633333  0.5
  Se2-  Se48  1  0.37766667  0.37033333  0.75033333  0.5
  S2-  S49  1  0.37766667  0.37033333  0.75033333  0.5
  Se2-  Se50  1  0.99266667  0.62233333  0.75033333  0.5
  S2-  S51  1  0.99266667  0.62233333  0.75033333  0.5
  Se2-  Se52  1  0.62966667  0.00733333  0.75033333  0.5
  S2-  S53  1  0.62966667  0.00733333  0.75033333  0.5
  Se2-  Se54  1  0.62233333  0.62966667  0.24966667  0.5
  S2-  S55  1  0.62233333  0.62966667  0.24966667  0.5
  Se2-  Se56  1  0.00733333  0.37766667  0.24966667  0.5
  S2-  S57  1  0.00733333  0.37766667  0.24966667  0.5
  Se2-  Se58  1  0.37033333  0.99266667  0.24966667  0.5
  S2-  S59  1  0.37033333  0.99266667  0.24966667  0.5
  Se2-  Se60  1  0.04433333  0.70366667  0.08366667  0.5
  S2-  S61  1  0.04433333  0.70366667  0.08366667  0.5
  Se2-  Se62  1  0.65933333  0.95566667  0.08366667  0.5
  S2-  S63  1  0.65933333  0.95566667  0.08366667  0.5
  Se2-  Se64  1  0.29633333  0.34066667  0.08366667  0.5
  S2-  S65  1  0.29633333  0.34066667  0.08366667  0.5
