# generated using pymatgen
data_Zn2.988Mo18S24
_symmetry_space_group_name_H-M   'P 1'
_cell_length_a   9.54000000
_cell_length_b   9.54000000
_cell_length_c   10.34000000
_cell_angle_alpha   90.00000000
_cell_angle_beta   90.00000000
_cell_angle_gamma   120.00000000
_symmetry_Int_Tables_number   1
_chemical_formula_structural   Zn2.988Mo18S24
_chemical_formula_sum   'Zn2.988 Mo18 S24'
_cell_volume   814.98181799
_cell_formula_units_Z   1
loop_
 _symmetry_equiv_pos_site_id
 _symmetry_equiv_pos_as_xyz
  1  'x, y, z'
loop_
 _atom_type_symbol
 _atom_type_oxidation_number
  Zn2+  2.0
  Mo2.33+  2.33
  S2-  -2.0
loop_
 _atom_site_type_symbol
 _atom_site_label
 _atom_site_symmetry_multiplicity
 _atom_site_fract_x
 _atom_site_fract_y
 _atom_site_fract_z
 _atom_site_occupancy
  Zn2+  Zn0  1  0.09600000  0.16600000  0.98400000  0.083
  Zn2+  Zn1  1  0.07000000  0.90400000  0.98400000  0.083
  Zn2+  Zn2  1  0.83400000  0.93000000  0.98400000  0.083
  Zn2+  Zn3  1  0.90400000  0.83400000  0.01600000  0.083
  Zn2+  Zn4  1  0.93000000  0.09600000  0.01600000  0.083
  Zn2+  Zn5  1  0.16600000  0.07000000  0.01600000  0.083
  Zn2+  Zn6  1  0.76266667  0.49933333  0.31733333  0.083
  Zn2+  Zn7  1  0.73666667  0.23733333  0.31733333  0.083
  Zn2+  Zn8  1  0.50066667  0.26333333  0.31733333  0.083
  Zn2+  Zn9  1  0.57066667  0.16733333  0.34933333  0.083
  Zn2+  Zn10  1  0.59666667  0.42933333  0.34933333  0.083
  Zn2+  Zn11  1  0.83266667  0.40333333  0.34933333  0.083
  Zn2+  Zn12  1  0.42933333  0.83266667  0.65066667  0.083
  Zn2+  Zn13  1  0.40333333  0.57066667  0.65066667  0.083
  Zn2+  Zn14  1  0.16733333  0.59666667  0.65066667  0.083
  Zn2+  Zn15  1  0.23733333  0.50066667  0.68266667  0.083
  Zn2+  Zn16  1  0.26333333  0.76266667  0.68266667  0.083
  Zn2+  Zn17  1  0.49933333  0.73666667  0.68266667  0.083
  Zn2+  Zn18  1  0.08800000  0.24100000  0.90400000  0.083
  Zn2+  Zn19  1  0.15300000  0.91200000  0.90400000  0.083
  Zn2+  Zn20  1  0.75900000  0.84700000  0.90400000  0.083
  Zn2+  Zn21  1  0.91200000  0.75900000  0.09600000  0.083
  Zn2+  Zn22  1  0.84700000  0.08800000  0.09600000  0.083
  Zn2+  Zn23  1  0.24100000  0.15300000  0.09600000  0.083
  Zn2+  Zn24  1  0.75466667  0.57433333  0.23733333  0.083
  Zn2+  Zn25  1  0.81966667  0.24533333  0.23733333  0.083
  Zn2+  Zn26  1  0.42566667  0.18033333  0.23733333  0.083
  Zn2+  Zn27  1  0.57866667  0.09233333  0.42933333  0.083
  Zn2+  Zn28  1  0.51366667  0.42133333  0.42933333  0.083
  Zn2+  Zn29  1  0.90766667  0.48633333  0.42933333  0.083
  Zn2+  Zn30  1  0.42133333  0.90766667  0.57066667  0.083
  Zn2+  Zn31  1  0.48633333  0.57866667  0.57066667  0.083
  Zn2+  Zn32  1  0.09233333  0.51366667  0.57066667  0.083
  Zn2+  Zn33  1  0.24533333  0.42566667  0.76266667  0.083
  Zn2+  Zn34  1  0.18033333  0.75466667  0.76266667  0.083
  Zn2+  Zn35  1  0.57433333  0.81966667  0.76266667  0.083
  Mo2.33+  Mo36  1  0.98500000  0.15400000  0.61100000  1.0
  Mo2.33+  Mo37  1  0.16900000  0.01500000  0.61100000  1.0
  Mo2.33+  Mo38  1  0.84600000  0.83100000  0.61100000  1.0
  Mo2.33+  Mo39  1  0.01500000  0.84600000  0.38900000  1.0
  Mo2.33+  Mo40  1  0.83100000  0.98500000  0.38900000  1.0
  Mo2.33+  Mo41  1  0.15400000  0.16900000  0.38900000  1.0
  Mo2.33+  Mo42  1  0.65166667  0.48733333  0.94433333  1.0
  Mo2.33+  Mo43  1  0.83566667  0.34833333  0.94433333  1.0
  Mo2.33+  Mo44  1  0.51266667  0.16433333  0.94433333  1.0
  Mo2.33+  Mo45  1  0.68166667  0.17933333  0.72233333  1.0
  Mo2.33+  Mo46  1  0.49766667  0.31833333  0.72233333  1.0
  Mo2.33+  Mo47  1  0.82066667  0.50233333  0.72233333  1.0
  Mo2.33+  Mo48  1  0.31833333  0.82066667  0.27766667  1.0
  Mo2.33+  Mo49  1  0.50233333  0.68166667  0.27766667  1.0
  Mo2.33+  Mo50  1  0.17933333  0.49766667  0.27766667  1.0
  Mo2.33+  Mo51  1  0.34833333  0.51266667  0.05566667  1.0
  Mo2.33+  Mo52  1  0.16433333  0.65166667  0.05566667  1.0
  Mo2.33+  Mo53  1  0.48733333  0.83566667  0.05566667  1.0
  S2-  S54  1  0.00000000  0.00000000  0.79800000  1.0
  S2-  S55  1  0.00000000  0.00000000  0.20200000  1.0
  S2-  S56  1  0.66666667  0.33333333  0.13133333  1.0
  S2-  S57  1  0.66666667  0.33333333  0.53533333  1.0
  S2-  S58  1  0.33333333  0.66666667  0.46466667  1.0
  S2-  S59  1  0.33333333  0.66666667  0.86866667  1.0
  S2-  S60  1  0.69900000  0.05600000  0.92100000  1.0
  S2-  S61  1  0.35700000  0.30100000  0.92100000  1.0
  S2-  S62  1  0.94400000  0.64300000  0.92100000  1.0
  S2-  S63  1  0.30100000  0.94400000  0.07900000  1.0
  S2-  S64  1  0.64300000  0.69900000  0.07900000  1.0
  S2-  S65  1  0.05600000  0.35700000  0.07900000  1.0
  S2-  S66  1  0.36566667  0.38933333  0.25433333  1.0
  S2-  S67  1  0.02366667  0.63433333  0.25433333  1.0
  S2-  S68  1  0.61066667  0.97633333  0.25433333  1.0
  S2-  S69  1  0.96766667  0.27733333  0.41233333  1.0
  S2-  S70  1  0.30966667  0.03233333  0.41233333  1.0
  S2-  S71  1  0.72266667  0.69033333  0.41233333  1.0
  S2-  S72  1  0.03233333  0.72266667  0.58766667  1.0
  S2-  S73  1  0.69033333  0.96766667  0.58766667  1.0
  S2-  S74  1  0.27733333  0.30966667  0.58766667  1.0
  S2-  S75  1  0.63433333  0.61066667  0.74566667  1.0
  S2-  S76  1  0.97633333  0.36566667  0.74566667  1.0
  S2-  S77  1  0.38933333  0.02366667  0.74566667  1.0
