# generated using pymatgen
data_NbOs
_symmetry_space_group_name_H-M   'P 1'
_cell_length_a   9.76000000
_cell_length_b   9.76000000
_cell_length_c   9.76000000
_cell_angle_alpha   90.00000000
_cell_angle_beta   90.00000000
_cell_angle_gamma   90.00000000
_symmetry_Int_Tables_number   1
_chemical_formula_structural   NbOs
_chemical_formula_sum   'Nb29 Os29'
_cell_volume   929.71417600
_cell_formula_units_Z   29
loop_
 _symmetry_equiv_pos_site_id
 _symmetry_equiv_pos_as_xyz
  1  'x, y, z'
loop_
 _atom_type_symbol
 _atom_type_oxidation_number
  Nb0+  0.0
  Os0+  0.0
loop_
 _atom_site_type_symbol
 _atom_site_label
 _atom_site_symmetry_multiplicity
 _atom_site_fract_x
 _atom_site_fract_y
 _atom_site_fract_z
 _atom_site_occupancy
  Nb0+  Nb0  1  0.00000000  0.00000000  0.00000000  0.5
  Os0+  Os1  1  0.00000000  0.00000000  0.00000000  0.5
  Nb0+  Nb2  1  0.50000000  0.50000000  0.50000000  0.5
  Os0+  Os3  1  0.50000000  0.50000000  0.50000000  0.5
  Nb0+  Nb4  1  0.68300000  0.68300000  0.31700000  0.5
  Os0+  Os5  1  0.68300000  0.68300000  0.31700000  0.5
  Nb0+  Nb6  1  0.68300000  0.31700000  0.68300000  0.5
  Os0+  Os7  1  0.68300000  0.31700000  0.68300000  0.5
  Nb0+  Nb8  1  0.31700000  0.68300000  0.68300000  0.5
  Os0+  Os9  1  0.31700000  0.68300000  0.68300000  0.5
  Nb0+  Nb10  1  0.31700000  0.31700000  0.31700000  0.5
  Os0+  Os11  1  0.31700000  0.31700000  0.31700000  0.5
  Nb0+  Nb12  1  0.18300000  0.18300000  0.81700000  0.5
  Os0+  Os13  1  0.18300000  0.18300000  0.81700000  0.5
  Nb0+  Nb14  1  0.18300000  0.81700000  0.18300000  0.5
  Os0+  Os15  1  0.18300000  0.81700000  0.18300000  0.5
  Nb0+  Nb16  1  0.81700000  0.18300000  0.18300000  0.5
  Os0+  Os17  1  0.81700000  0.18300000  0.18300000  0.5
  Nb0+  Nb18  1  0.81700000  0.81700000  0.81700000  0.5
  Os0+  Os19  1  0.81700000  0.81700000  0.81700000  0.5
  Nb0+  Nb20  1  0.95800000  0.64400000  0.35600000  0.5
  Os0+  Os21  1  0.95800000  0.64400000  0.35600000  0.5
  Nb0+  Nb22  1  0.64400000  0.64400000  0.04200000  0.5
  Os0+  Os23  1  0.64400000  0.64400000  0.04200000  0.5
  Nb0+  Nb24  1  0.64400000  0.95800000  0.35600000  0.5
  Os0+  Os25  1  0.64400000  0.95800000  0.35600000  0.5
  Nb0+  Nb26  1  0.95800000  0.35600000  0.64400000  0.5
  Os0+  Os27  1  0.95800000  0.35600000  0.64400000  0.5
  Nb0+  Nb28  1  0.64400000  0.35600000  0.95800000  0.5
  Os0+  Os29  1  0.64400000  0.35600000  0.95800000  0.5
  Nb0+  Nb30  1  0.64400000  0.04200000  0.64400000  0.5
  Os0+  Os31  1  0.64400000  0.04200000  0.64400000  0.5
  Nb0+  Nb32  1  0.04200000  0.64400000  0.64400000  0.5
  Os0+  Os33  1  0.04200000  0.64400000  0.64400000  0.5
  Nb0+  Nb34  1  0.35600000  0.64400000  0.95800000  0.5
  Os0+  Os35  1  0.35600000  0.64400000  0.95800000  0.5
  Nb0+  Nb36  1  0.35600000  0.95800000  0.64400000  0.5
  Os0+  Os37  1  0.35600000  0.95800000  0.64400000  0.5
  Nb0+  Nb38  1  0.04200000  0.35600000  0.35600000  0.5
  Os0+  Os39  1  0.04200000  0.35600000  0.35600000  0.5
  Nb0+  Nb40  1  0.35600000  0.35600000  0.04200000  0.5
  Os0+  Os41  1  0.35600000  0.35600000  0.04200000  0.5
  Nb0+  Nb42  1  0.35600000  0.04200000  0.35600000  0.5
  Os0+  Os43  1  0.35600000  0.04200000  0.35600000  0.5
  Nb0+  Nb44  1  0.45800000  0.14400000  0.85600000  0.5
  Os0+  Os45  1  0.45800000  0.14400000  0.85600000  0.5
  Nb0+  Nb46  1  0.14400000  0.14400000  0.54200000  0.5
  Os0+  Os47  1  0.14400000  0.14400000  0.54200000  0.5
  Nb0+  Nb48  1  0.14400000  0.45800000  0.85600000  0.5
  Os0+  Os49  1  0.14400000  0.45800000  0.85600000  0.5
  Nb0+  Nb50  1  0.45800000  0.85600000  0.14400000  0.5
  Os0+  Os51  1  0.45800000  0.85600000  0.14400000  0.5
  Nb0+  Nb52  1  0.14400000  0.85600000  0.45800000  0.5
  Os0+  Os53  1  0.14400000  0.85600000  0.45800000  0.5
  Nb0+  Nb54  1  0.14400000  0.54200000  0.14400000  0.5
  Os0+  Os55  1  0.14400000  0.54200000  0.14400000  0.5
  Nb0+  Nb56  1  0.54200000  0.14400000  0.14400000  0.5
  Os0+  Os57  1  0.54200000  0.14400000  0.14400000  0.5
  Nb0+  Nb58  1  0.85600000  0.14400000  0.45800000  0.5
  Os0+  Os59  1  0.85600000  0.14400000  0.45800000  0.5
  Nb0+  Nb60  1  0.85600000  0.45800000  0.14400000  0.5
  Os0+  Os61  1  0.85600000  0.45800000  0.14400000  0.5
  Nb0+  Nb62  1  0.54200000  0.85600000  0.85600000  0.5
  Os0+  Os63  1  0.54200000  0.85600000  0.85600000  0.5
  Nb0+  Nb64  1  0.85600000  0.85600000  0.54200000  0.5
  Os0+  Os65  1  0.85600000  0.85600000  0.54200000  0.5
  Nb0+  Nb66  1  0.85600000  0.54200000  0.85600000  0.5
  Os0+  Os67  1  0.85600000  0.54200000  0.85600000  0.5
  Nb0+  Nb68  1  0.72200000  0.91100000  0.08900000  0.5
  Os0+  Os69  1  0.72200000  0.91100000  0.08900000  0.5
  Nb0+  Nb70  1  0.91100000  0.91100000  0.27800000  0.5
  Os0+  Os71  1  0.91100000  0.91100000  0.27800000  0.5
  Nb0+  Nb72  1  0.91100000  0.72200000  0.08900000  0.5
  Os0+  Os73  1  0.91100000  0.72200000  0.08900000  0.5
  Nb0+  Nb74  1  0.72200000  0.08900000  0.91100000  0.5
  Os0+  Os75  1  0.72200000  0.08900000  0.91100000  0.5
  Nb0+  Nb76  1  0.91100000  0.08900000  0.72200000  0.5
  Os0+  Os77  1  0.91100000  0.08900000  0.72200000  0.5
  Nb0+  Nb78  1  0.91100000  0.27800000  0.91100000  0.5
  Os0+  Os79  1  0.91100000  0.27800000  0.91100000  0.5
  Nb0+  Nb80  1  0.27800000  0.91100000  0.91100000  0.5
  Os0+  Os81  1  0.27800000  0.91100000  0.91100000  0.5
  Nb0+  Nb82  1  0.08900000  0.91100000  0.72200000  0.5
  Os0+  Os83  1  0.08900000  0.91100000  0.72200000  0.5
  Nb0+  Nb84  1  0.08900000  0.72200000  0.91100000  0.5
  Os0+  Os85  1  0.08900000  0.72200000  0.91100000  0.5
  Nb0+  Nb86  1  0.27800000  0.08900000  0.08900000  0.5
  Os0+  Os87  1  0.27800000  0.08900000  0.08900000  0.5
  Nb0+  Nb88  1  0.08900000  0.08900000  0.27800000  0.5
  Os0+  Os89  1  0.08900000  0.08900000  0.27800000  0.5
  Nb0+  Nb90  1  0.08900000  0.27800000  0.08900000  0.5
  Os0+  Os91  1  0.08900000  0.27800000  0.08900000  0.5
  Nb0+  Nb92  1  0.22200000  0.41100000  0.58900000  0.5
  Os0+  Os93  1  0.22200000  0.41100000  0.58900000  0.5
  Nb0+  Nb94  1  0.41100000  0.41100000  0.77800000  0.5
  Os0+  Os95  1  0.41100000  0.41100000  0.77800000  0.5
  Nb0+  Nb96  1  0.41100000  0.22200000  0.58900000  0.5
  Os0+  Os97  1  0.41100000  0.22200000  0.58900000  0.5
  Nb0+  Nb98  1  0.22200000  0.58900000  0.41100000  0.5
  Os0+  Os99  1  0.22200000  0.58900000  0.41100000  0.5
  Nb0+  Nb100  1  0.41100000  0.58900000  0.22200000  0.5
  Os0+  Os101  1  0.41100000  0.58900000  0.22200000  0.5
  Nb0+  Nb102  1  0.41100000  0.77800000  0.41100000  0.5
  Os0+  Os103  1  0.41100000  0.77800000  0.41100000  0.5
  Nb0+  Nb104  1  0.77800000  0.41100000  0.41100000  0.5
  Os0+  Os105  1  0.77800000  0.41100000  0.41100000  0.5
  Nb0+  Nb106  1  0.58900000  0.41100000  0.22200000  0.5
  Os0+  Os107  1  0.58900000  0.41100000  0.22200000  0.5
  Nb0+  Nb108  1  0.58900000  0.22200000  0.41100000  0.5
  Os0+  Os109  1  0.58900000  0.22200000  0.41100000  0.5
  Nb0+  Nb110  1  0.77800000  0.58900000  0.58900000  0.5
  Os0+  Os111  1  0.77800000  0.58900000  0.58900000  0.5
  Nb0+  Nb112  1  0.58900000  0.58900000  0.77800000  0.5
  Os0+  Os113  1  0.58900000  0.58900000  0.77800000  0.5
  Nb0+  Nb114  1  0.58900000  0.77800000  0.58900000  0.5
  Os0+  Os115  1  0.58900000  0.77800000  0.58900000  0.5
