# generated using pymatgen
data_Nb3Os2
_symmetry_space_group_name_H-M   'P 1'
_cell_length_a   9.85000000
_cell_length_b   9.85000000
_cell_length_c   5.06000000
_cell_angle_alpha   90.00000000
_cell_angle_beta   90.00000000
_cell_angle_gamma   90.00000000
_symmetry_Int_Tables_number   1
_chemical_formula_structural   Nb3Os2
_chemical_formula_sum   'Nb18 Os12'
_cell_volume   490.93385000
_cell_formula_units_Z   6
loop_
 _symmetry_equiv_pos_site_id
 _symmetry_equiv_pos_as_xyz
  1  'x, y, z'
loop_
 _atom_type_symbol
 _atom_type_oxidation_number
  Nb0+  0.0
  Os0+  0.0
loop_
 _atom_site_type_symbol
 _atom_site_label
 _atom_site_symmetry_multiplicity
 _atom_site_fract_x
 _atom_site_fract_y
 _atom_site_fract_z
 _atom_site_occupancy
  Nb0+  Nb0  1  0.10200000  0.89800000  0.50000000  1.0
  Nb0+  Nb1  1  0.89800000  0.10200000  0.50000000  1.0
  Nb0+  Nb2  1  0.39800000  0.39800000  0.00000000  1.0
  Nb0+  Nb3  1  0.60200000  0.60200000  0.00000000  1.0
  Nb0+  Nb4  1  0.36800000  0.96300000  0.50000000  1.0
  Nb0+  Nb5  1  0.63200000  0.03700000  0.50000000  1.0
  Nb0+  Nb6  1  0.13200000  0.46300000  0.00000000  1.0
  Nb0+  Nb7  1  0.86800000  0.53700000  0.00000000  1.0
  Nb0+  Nb8  1  0.96300000  0.36800000  0.50000000  1.0
  Nb0+  Nb9  1  0.03700000  0.63200000  0.50000000  1.0
  Nb0+  Nb10  1  0.46300000  0.13200000  0.00000000  1.0
  Nb0+  Nb11  1  0.53700000  0.86800000  0.00000000  1.0
  Nb0+  Nb12  1  0.31800000  0.68200000  0.24800000  0.75
  Os0+  Os13  1  0.31800000  0.68200000  0.24800000  0.25
  Nb0+  Nb14  1  0.68200000  0.31800000  0.24800000  0.75
  Os0+  Os15  1  0.68200000  0.31800000  0.24800000  0.25
  Nb0+  Nb16  1  0.18200000  0.18200000  0.74800000  0.75
  Os0+  Os17  1  0.18200000  0.18200000  0.74800000  0.25
  Nb0+  Nb18  1  0.81800000  0.81800000  0.74800000  0.75
  Os0+  Os19  1  0.81800000  0.81800000  0.74800000  0.25
  Nb0+  Nb20  1  0.68200000  0.31800000  0.75200000  0.75
  Os0+  Os21  1  0.68200000  0.31800000  0.75200000  0.25
  Nb0+  Nb22  1  0.31800000  0.68200000  0.75200000  0.75
  Os0+  Os23  1  0.31800000  0.68200000  0.75200000  0.25
  Nb0+  Nb24  1  0.81800000  0.81800000  0.25200000  0.75
  Os0+  Os25  1  0.81800000  0.81800000  0.25200000  0.25
  Nb0+  Nb26  1  0.18200000  0.18200000  0.25200000  0.75
  Os0+  Os27  1  0.18200000  0.18200000  0.25200000  0.25
  Os0+  Os28  1  0.50000000  0.50000000  0.50000000  1.0
  Os0+  Os29  1  0.00000000  0.00000000  0.00000000  1.0
  Os0+  Os30  1  0.43500000  0.23800000  0.50000000  1.0
  Os0+  Os31  1  0.56500000  0.76200000  0.50000000  1.0
  Os0+  Os32  1  0.06500000  0.73800000  0.00000000  1.0
  Os0+  Os33  1  0.93500000  0.26200000  0.00000000  1.0
  Os0+  Os34  1  0.23800000  0.43500000  0.50000000  1.0
  Os0+  Os35  1  0.76200000  0.56500000  0.50000000  1.0
  Os0+  Os36  1  0.73800000  0.06500000  0.00000000  1.0
  Os0+  Os37  1  0.26200000  0.93500000  0.00000000  1.0
