# generated using pymatgen
data_Nb5.4Rh6.6
_symmetry_space_group_name_H-M   'P 1'
_cell_length_a   13.58700000
_cell_length_b   2.82700000
_cell_length_c   4.77000000
_cell_angle_alpha   90.00000000
_cell_angle_beta   90.00000000
_cell_angle_gamma   90.00000000
_symmetry_Int_Tables_number   1
_chemical_formula_structural   Nb5.4Rh6.6
_chemical_formula_sum   'Nb5.4 Rh6.6'
_cell_volume   183.21784173
_cell_formula_units_Z   1
loop_
 _symmetry_equiv_pos_site_id
 _symmetry_equiv_pos_as_xyz
  1  'x, y, z'
loop_
 _atom_type_symbol
 _atom_type_oxidation_number
  Nb0+  0.0
  Rh0+  0.0
loop_
 _atom_site_type_symbol
 _atom_site_label
 _atom_site_symmetry_multiplicity
 _atom_site_fract_x
 _atom_site_fract_y
 _atom_site_fract_z
 _atom_site_occupancy
  Nb0+  Nb0  1  0.58300000  0.00000000  0.32000000  1.0
  Nb0+  Nb1  1  0.41700000  0.00000000  0.68000000  1.0
  Nb0+  Nb2  1  0.91700000  0.00000000  0.32000000  1.0
  Nb0+  Nb3  1  0.08300000  0.00000000  0.68000000  1.0
  Nb0+  Nb4  1  0.25000000  0.00000000  0.04000000  0.7
  Rh0+  Rh5  1  0.25000000  0.00000000  0.04000000  0.3
  Nb0+  Nb6  1  0.75000000  0.00000000  0.96000000  0.7
  Rh0+  Rh7  1  0.75000000  0.00000000  0.96000000  0.3
  Rh0+  Rh8  1  0.25000000  0.50000000  0.54000000  1.0
  Rh0+  Rh9  1  0.75000000  0.50000000  0.46000000  1.0
  Rh0+  Rh10  1  0.58300000  0.50000000  0.82000000  1.0
  Rh0+  Rh11  1  0.41700000  0.50000000  0.18000000  1.0
  Rh0+  Rh12  1  0.91700000  0.50000000  0.82000000  1.0
  Rh0+  Rh13  1  0.08300000  0.50000000  0.18000000  1.0
