# generated using pymatgen
data_Nb14.56Re43.44
_symmetry_space_group_name_H-M   'P 1'
_cell_length_a   9.68600000
_cell_length_b   9.68600000
_cell_length_c   9.68600000
_cell_angle_alpha   90.00000000
_cell_angle_beta   90.00000000
_cell_angle_gamma   90.00000000
_symmetry_Int_Tables_number   1
_chemical_formula_structural   Nb14.56Re43.44
_chemical_formula_sum   'Nb14.56 Re43.44'
_cell_volume   908.72692086
_cell_formula_units_Z   1
loop_
 _symmetry_equiv_pos_site_id
 _symmetry_equiv_pos_as_xyz
  1  'x, y, z'
loop_
 _atom_type_symbol
 _atom_type_oxidation_number
  Nb0+  0.0
  Re0+  0.0
loop_
 _atom_site_type_symbol
 _atom_site_label
 _atom_site_symmetry_multiplicity
 _atom_site_fract_x
 _atom_site_fract_y
 _atom_site_fract_z
 _atom_site_occupancy
  Nb0+  Nb0  1  0.00000000  0.00000000  0.00000000  1.0
  Nb0+  Nb1  1  0.50000000  0.50000000  0.50000000  1.0
  Nb0+  Nb2  1  0.68300000  0.68300000  0.31700000  1.0
  Nb0+  Nb3  1  0.68300000  0.31700000  0.68300000  1.0
  Nb0+  Nb4  1  0.31700000  0.68300000  0.68300000  1.0
  Nb0+  Nb5  1  0.31700000  0.31700000  0.31700000  1.0
  Nb0+  Nb6  1  0.18300000  0.18300000  0.81700000  1.0
  Nb0+  Nb7  1  0.18300000  0.81700000  0.18300000  1.0
  Nb0+  Nb8  1  0.81700000  0.18300000  0.18300000  1.0
  Nb0+  Nb9  1  0.81700000  0.81700000  0.81700000  1.0
  Nb0+  Nb10  1  0.95800000  0.64400000  0.35600000  0.095
  Re0+  Re11  1  0.95800000  0.64400000  0.35600000  0.905
  Nb0+  Nb12  1  0.64400000  0.64400000  0.04200000  0.095
  Re0+  Re13  1  0.64400000  0.64400000  0.04200000  0.905
  Nb0+  Nb14  1  0.64400000  0.95800000  0.35600000  0.095
  Re0+  Re15  1  0.64400000  0.95800000  0.35600000  0.905
  Nb0+  Nb16  1  0.95800000  0.35600000  0.64400000  0.095
  Re0+  Re17  1  0.95800000  0.35600000  0.64400000  0.905
  Nb0+  Nb18  1  0.64400000  0.35600000  0.95800000  0.095
  Re0+  Re19  1  0.64400000  0.35600000  0.95800000  0.905
  Nb0+  Nb20  1  0.64400000  0.04200000  0.64400000  0.095
  Re0+  Re21  1  0.64400000  0.04200000  0.64400000  0.905
  Nb0+  Nb22  1  0.04200000  0.64400000  0.64400000  0.095
  Re0+  Re23  1  0.04200000  0.64400000  0.64400000  0.905
  Nb0+  Nb24  1  0.35600000  0.64400000  0.95800000  0.095
  Re0+  Re25  1  0.35600000  0.64400000  0.95800000  0.905
  Nb0+  Nb26  1  0.35600000  0.95800000  0.64400000  0.095
  Re0+  Re27  1  0.35600000  0.95800000  0.64400000  0.905
  Nb0+  Nb28  1  0.04200000  0.35600000  0.35600000  0.095
  Re0+  Re29  1  0.04200000  0.35600000  0.35600000  0.905
  Nb0+  Nb30  1  0.35600000  0.35600000  0.04200000  0.095
  Re0+  Re31  1  0.35600000  0.35600000  0.04200000  0.905
  Nb0+  Nb32  1  0.35600000  0.04200000  0.35600000  0.095
  Re0+  Re33  1  0.35600000  0.04200000  0.35600000  0.905
  Nb0+  Nb34  1  0.45800000  0.14400000  0.85600000  0.095
  Re0+  Re35  1  0.45800000  0.14400000  0.85600000  0.905
  Nb0+  Nb36  1  0.14400000  0.14400000  0.54200000  0.095
  Re0+  Re37  1  0.14400000  0.14400000  0.54200000  0.905
  Nb0+  Nb38  1  0.14400000  0.45800000  0.85600000  0.095
  Re0+  Re39  1  0.14400000  0.45800000  0.85600000  0.905
  Nb0+  Nb40  1  0.45800000  0.85600000  0.14400000  0.095
  Re0+  Re41  1  0.45800000  0.85600000  0.14400000  0.905
  Nb0+  Nb42  1  0.14400000  0.85600000  0.45800000  0.095
  Re0+  Re43  1  0.14400000  0.85600000  0.45800000  0.905
  Nb0+  Nb44  1  0.14400000  0.54200000  0.14400000  0.095
  Re0+  Re45  1  0.14400000  0.54200000  0.14400000  0.905
  Nb0+  Nb46  1  0.54200000  0.14400000  0.14400000  0.095
  Re0+  Re47  1  0.54200000  0.14400000  0.14400000  0.905
  Nb0+  Nb48  1  0.85600000  0.14400000  0.45800000  0.095
  Re0+  Re49  1  0.85600000  0.14400000  0.45800000  0.905
  Nb0+  Nb50  1  0.85600000  0.45800000  0.14400000  0.095
  Re0+  Re51  1  0.85600000  0.45800000  0.14400000  0.905
  Nb0+  Nb52  1  0.54200000  0.85600000  0.85600000  0.095
  Re0+  Re53  1  0.54200000  0.85600000  0.85600000  0.905
  Nb0+  Nb54  1  0.85600000  0.85600000  0.54200000  0.095
  Re0+  Re55  1  0.85600000  0.85600000  0.54200000  0.905
  Nb0+  Nb56  1  0.85600000  0.54200000  0.85600000  0.095
  Re0+  Re57  1  0.85600000  0.54200000  0.85600000  0.905
  Nb0+  Nb58  1  0.72200000  0.91100000  0.08900000  0.095
  Re0+  Re59  1  0.72200000  0.91100000  0.08900000  0.905
  Nb0+  Nb60  1  0.91100000  0.91100000  0.27800000  0.095
  Re0+  Re61  1  0.91100000  0.91100000  0.27800000  0.905
  Nb0+  Nb62  1  0.91100000  0.72200000  0.08900000  0.095
  Re0+  Re63  1  0.91100000  0.72200000  0.08900000  0.905
  Nb0+  Nb64  1  0.72200000  0.08900000  0.91100000  0.095
  Re0+  Re65  1  0.72200000  0.08900000  0.91100000  0.905
  Nb0+  Nb66  1  0.91100000  0.08900000  0.72200000  0.095
  Re0+  Re67  1  0.91100000  0.08900000  0.72200000  0.905
  Nb0+  Nb68  1  0.91100000  0.27800000  0.91100000  0.095
  Re0+  Re69  1  0.91100000  0.27800000  0.91100000  0.905
  Nb0+  Nb70  1  0.27800000  0.91100000  0.91100000  0.095
  Re0+  Re71  1  0.27800000  0.91100000  0.91100000  0.905
  Nb0+  Nb72  1  0.08900000  0.91100000  0.72200000  0.095
  Re0+  Re73  1  0.08900000  0.91100000  0.72200000  0.905
  Nb0+  Nb74  1  0.08900000  0.72200000  0.91100000  0.095
  Re0+  Re75  1  0.08900000  0.72200000  0.91100000  0.905
  Nb0+  Nb76  1  0.27800000  0.08900000  0.08900000  0.095
  Re0+  Re77  1  0.27800000  0.08900000  0.08900000  0.905
  Nb0+  Nb78  1  0.08900000  0.08900000  0.27800000  0.095
  Re0+  Re79  1  0.08900000  0.08900000  0.27800000  0.905
  Nb0+  Nb80  1  0.08900000  0.27800000  0.08900000  0.095
  Re0+  Re81  1  0.08900000  0.27800000  0.08900000  0.905
  Nb0+  Nb82  1  0.22200000  0.41100000  0.58900000  0.095
  Re0+  Re83  1  0.22200000  0.41100000  0.58900000  0.905
  Nb0+  Nb84  1  0.41100000  0.41100000  0.77800000  0.095
  Re0+  Re85  1  0.41100000  0.41100000  0.77800000  0.905
  Nb0+  Nb86  1  0.41100000  0.22200000  0.58900000  0.095
  Re0+  Re87  1  0.41100000  0.22200000  0.58900000  0.905
  Nb0+  Nb88  1  0.22200000  0.58900000  0.41100000  0.095
  Re0+  Re89  1  0.22200000  0.58900000  0.41100000  0.905
  Nb0+  Nb90  1  0.41100000  0.58900000  0.22200000  0.095
  Re0+  Re91  1  0.41100000  0.58900000  0.22200000  0.905
  Nb0+  Nb92  1  0.41100000  0.77800000  0.41100000  0.095
  Re0+  Re93  1  0.41100000  0.77800000  0.41100000  0.905
  Nb0+  Nb94  1  0.77800000  0.41100000  0.41100000  0.095
  Re0+  Re95  1  0.77800000  0.41100000  0.41100000  0.905
  Nb0+  Nb96  1  0.58900000  0.41100000  0.22200000  0.095
  Re0+  Re97  1  0.58900000  0.41100000  0.22200000  0.905
  Nb0+  Nb98  1  0.58900000  0.22200000  0.41100000  0.095
  Re0+  Re99  1  0.58900000  0.22200000  0.41100000  0.905
  Nb0+  Nb100  1  0.77800000  0.58900000  0.58900000  0.095
  Re0+  Re101  1  0.77800000  0.58900000  0.58900000  0.905
  Nb0+  Nb102  1  0.58900000  0.58900000  0.77800000  0.095
  Re0+  Re103  1  0.58900000  0.58900000  0.77800000  0.905
  Nb0+  Nb104  1  0.58900000  0.77800000  0.58900000  0.095
  Re0+  Re105  1  0.58900000  0.77800000  0.58900000  0.905
