# generated using pymatgen
data_TlPdPb
_symmetry_space_group_name_H-M   'P 1'
_cell_length_a   6.76000000
_cell_length_b   6.76000000
_cell_length_c   5.82000000
_cell_angle_alpha   90.00000000
_cell_angle_beta   90.00000000
_cell_angle_gamma   90.00000000
_symmetry_Int_Tables_number   1
_chemical_formula_structural   TlPdPb
_chemical_formula_sum   'Tl4 Pd4 Pb4'
_cell_volume   265.96003200
_cell_formula_units_Z   4
loop_
 _symmetry_equiv_pos_site_id
 _symmetry_equiv_pos_as_xyz
  1  'x, y, z'
loop_
 _atom_type_symbol
 _atom_type_oxidation_number
  Tl0+  0.0
  Pd0+  0.0
  Pb0+  0.0
loop_
 _atom_site_type_symbol
 _atom_site_label
 _atom_site_symmetry_multiplicity
 _atom_site_fract_x
 _atom_site_fract_y
 _atom_site_fract_z
 _atom_site_occupancy
  Tl0+  Tl0  1  0.66500000  0.16500000  0.50000000  0.5
  Pb0+  Pb1  1  0.66500000  0.16500000  0.50000000  0.5
  Tl0+  Tl2  1  0.33500000  0.83500000  0.50000000  0.5
  Pb0+  Pb3  1  0.33500000  0.83500000  0.50000000  0.5
  Tl0+  Tl4  1  0.33500000  0.16500000  0.00000000  0.5
  Pb0+  Pb5  1  0.33500000  0.16500000  0.00000000  0.5
  Tl0+  Tl6  1  0.66500000  0.83500000  0.00000000  0.5
  Pb0+  Pb7  1  0.66500000  0.83500000  0.00000000  0.5
  Tl0+  Tl8  1  0.16500000  0.33500000  0.50000000  0.5
  Pb0+  Pb9  1  0.16500000  0.33500000  0.50000000  0.5
  Tl0+  Tl10  1  0.83500000  0.66500000  0.50000000  0.5
  Pb0+  Pb11  1  0.83500000  0.66500000  0.50000000  0.5
  Tl0+  Tl12  1  0.16500000  0.66500000  0.00000000  0.5
  Pb0+  Pb13  1  0.16500000  0.66500000  0.00000000  0.5
  Tl0+  Tl14  1  0.83500000  0.33500000  0.00000000  0.5
  Pb0+  Pb15  1  0.83500000  0.33500000  0.00000000  0.5
  Pd0+  Pd16  1  0.00000000  0.00000000  0.25000000  1.0
  Pd0+  Pd17  1  0.00000000  0.00000000  0.75000000  1.0
  Pd0+  Pd18  1  0.50000000  0.50000000  0.75000000  1.0
  Pd0+  Pd19  1  0.50000000  0.50000000  0.25000000  1.0
