# generated using pymatgen
data_TePdSe
_symmetry_space_group_name_H-M   'P 1'
_cell_length_a   3.90000000
_cell_length_b   3.90000000
_cell_length_c   4.98000000
_cell_angle_alpha   90.00000000
_cell_angle_beta   90.00000000
_cell_angle_gamma   120.00000000
_symmetry_Int_Tables_number   1
_chemical_formula_structural   TePdSe
_chemical_formula_sum   'Te1 Pd1 Se1'
_cell_volume   65.59778703
_cell_formula_units_Z   1
loop_
 _symmetry_equiv_pos_site_id
 _symmetry_equiv_pos_as_xyz
  1  'x, y, z'
loop_
 _atom_type_symbol
 _atom_type_oxidation_number
  Te2-  -2.0
  Pd4+  4.0
  Se2-  -2.0
loop_
 _atom_site_type_symbol
 _atom_site_label
 _atom_site_symmetry_multiplicity
 _atom_site_fract_x
 _atom_site_fract_y
 _atom_site_fract_z
 _atom_site_occupancy
  Pd4+  Pd0  1  0.00000000  0.00000000  0.00000000  1.0
  Te2-  Te1  1  0.66666667  0.33333333  0.75000000  0.5
  Se2-  Se2  1  0.66666667  0.33333333  0.75000000  0.5
  Te2-  Te3  1  0.33333333  0.66666667  0.25000000  0.5
  Se2-  Se4  1  0.33333333  0.66666667  0.25000000  0.5
