# generated using pymatgen
data_Ta20.3Re37.7
_symmetry_space_group_name_H-M   'P 1'
_cell_length_a   9.76200000
_cell_length_b   9.76200000
_cell_length_c   9.76200000
_cell_angle_alpha   90.00000000
_cell_angle_beta   90.00000000
_cell_angle_gamma   90.00000000
_symmetry_Int_Tables_number   1
_chemical_formula_structural   Ta20.3Re37.7
_chemical_formula_sum   'Ta20.3 Re37.7'
_cell_volume   930.28583873
_cell_formula_units_Z   1
loop_
 _symmetry_equiv_pos_site_id
 _symmetry_equiv_pos_as_xyz
  1  'x, y, z'
loop_
 _atom_type_symbol
 _atom_type_oxidation_number
  Ta0+  0.0
  Re0+  0.0
loop_
 _atom_site_type_symbol
 _atom_site_label
 _atom_site_symmetry_multiplicity
 _atom_site_fract_x
 _atom_site_fract_y
 _atom_site_fract_z
 _atom_site_occupancy
  Ta0+  Ta0  1  0.00000000  0.00000000  0.00000000  0.35
  Re0+  Re1  1  0.00000000  0.00000000  0.00000000  0.65
  Ta0+  Ta2  1  0.50000000  0.50000000  0.50000000  0.35
  Re0+  Re3  1  0.50000000  0.50000000  0.50000000  0.65
  Ta0+  Ta4  1  0.68300000  0.68300000  0.31700000  0.35
  Re0+  Re5  1  0.68300000  0.68300000  0.31700000  0.65
  Ta0+  Ta6  1  0.68300000  0.31700000  0.68300000  0.35
  Re0+  Re7  1  0.68300000  0.31700000  0.68300000  0.65
  Ta0+  Ta8  1  0.31700000  0.68300000  0.68300000  0.35
  Re0+  Re9  1  0.31700000  0.68300000  0.68300000  0.65
  Ta0+  Ta10  1  0.31700000  0.31700000  0.31700000  0.35
  Re0+  Re11  1  0.31700000  0.31700000  0.31700000  0.65
  Ta0+  Ta12  1  0.18300000  0.18300000  0.81700000  0.35
  Re0+  Re13  1  0.18300000  0.18300000  0.81700000  0.65
  Ta0+  Ta14  1  0.18300000  0.81700000  0.18300000  0.35
  Re0+  Re15  1  0.18300000  0.81700000  0.18300000  0.65
  Ta0+  Ta16  1  0.81700000  0.18300000  0.18300000  0.35
  Re0+  Re17  1  0.81700000  0.18300000  0.18300000  0.65
  Ta0+  Ta18  1  0.81700000  0.81700000  0.81700000  0.35
  Re0+  Re19  1  0.81700000  0.81700000  0.81700000  0.65
  Ta0+  Ta20  1  0.95800000  0.64400000  0.35600000  0.35
  Re0+  Re21  1  0.95800000  0.64400000  0.35600000  0.65
  Ta0+  Ta22  1  0.64400000  0.64400000  0.04200000  0.35
  Re0+  Re23  1  0.64400000  0.64400000  0.04200000  0.65
  Ta0+  Ta24  1  0.64400000  0.95800000  0.35600000  0.35
  Re0+  Re25  1  0.64400000  0.95800000  0.35600000  0.65
  Ta0+  Ta26  1  0.95800000  0.35600000  0.64400000  0.35
  Re0+  Re27  1  0.95800000  0.35600000  0.64400000  0.65
  Ta0+  Ta28  1  0.64400000  0.35600000  0.95800000  0.35
  Re0+  Re29  1  0.64400000  0.35600000  0.95800000  0.65
  Ta0+  Ta30  1  0.64400000  0.04200000  0.64400000  0.35
  Re0+  Re31  1  0.64400000  0.04200000  0.64400000  0.65
  Ta0+  Ta32  1  0.04200000  0.64400000  0.64400000  0.35
  Re0+  Re33  1  0.04200000  0.64400000  0.64400000  0.65
  Ta0+  Ta34  1  0.35600000  0.64400000  0.95800000  0.35
  Re0+  Re35  1  0.35600000  0.64400000  0.95800000  0.65
  Ta0+  Ta36  1  0.35600000  0.95800000  0.64400000  0.35
  Re0+  Re37  1  0.35600000  0.95800000  0.64400000  0.65
  Ta0+  Ta38  1  0.04200000  0.35600000  0.35600000  0.35
  Re0+  Re39  1  0.04200000  0.35600000  0.35600000  0.65
  Ta0+  Ta40  1  0.35600000  0.35600000  0.04200000  0.35
  Re0+  Re41  1  0.35600000  0.35600000  0.04200000  0.65
  Ta0+  Ta42  1  0.35600000  0.04200000  0.35600000  0.35
  Re0+  Re43  1  0.35600000  0.04200000  0.35600000  0.65
  Ta0+  Ta44  1  0.45800000  0.14400000  0.85600000  0.35
  Re0+  Re45  1  0.45800000  0.14400000  0.85600000  0.65
  Ta0+  Ta46  1  0.14400000  0.14400000  0.54200000  0.35
  Re0+  Re47  1  0.14400000  0.14400000  0.54200000  0.65
  Ta0+  Ta48  1  0.14400000  0.45800000  0.85600000  0.35
  Re0+  Re49  1  0.14400000  0.45800000  0.85600000  0.65
  Ta0+  Ta50  1  0.45800000  0.85600000  0.14400000  0.35
  Re0+  Re51  1  0.45800000  0.85600000  0.14400000  0.65
  Ta0+  Ta52  1  0.14400000  0.85600000  0.45800000  0.35
  Re0+  Re53  1  0.14400000  0.85600000  0.45800000  0.65
  Ta0+  Ta54  1  0.14400000  0.54200000  0.14400000  0.35
  Re0+  Re55  1  0.14400000  0.54200000  0.14400000  0.65
  Ta0+  Ta56  1  0.54200000  0.14400000  0.14400000  0.35
  Re0+  Re57  1  0.54200000  0.14400000  0.14400000  0.65
  Ta0+  Ta58  1  0.85600000  0.14400000  0.45800000  0.35
  Re0+  Re59  1  0.85600000  0.14400000  0.45800000  0.65
  Ta0+  Ta60  1  0.85600000  0.45800000  0.14400000  0.35
  Re0+  Re61  1  0.85600000  0.45800000  0.14400000  0.65
  Ta0+  Ta62  1  0.54200000  0.85600000  0.85600000  0.35
  Re0+  Re63  1  0.54200000  0.85600000  0.85600000  0.65
  Ta0+  Ta64  1  0.85600000  0.85600000  0.54200000  0.35
  Re0+  Re65  1  0.85600000  0.85600000  0.54200000  0.65
  Ta0+  Ta66  1  0.85600000  0.54200000  0.85600000  0.35
  Re0+  Re67  1  0.85600000  0.54200000  0.85600000  0.65
  Ta0+  Ta68  1  0.72200000  0.91100000  0.08900000  0.35
  Re0+  Re69  1  0.72200000  0.91100000  0.08900000  0.65
  Ta0+  Ta70  1  0.91100000  0.91100000  0.27800000  0.35
  Re0+  Re71  1  0.91100000  0.91100000  0.27800000  0.65
  Ta0+  Ta72  1  0.91100000  0.72200000  0.08900000  0.35
  Re0+  Re73  1  0.91100000  0.72200000  0.08900000  0.65
  Ta0+  Ta74  1  0.72200000  0.08900000  0.91100000  0.35
  Re0+  Re75  1  0.72200000  0.08900000  0.91100000  0.65
  Ta0+  Ta76  1  0.91100000  0.08900000  0.72200000  0.35
  Re0+  Re77  1  0.91100000  0.08900000  0.72200000  0.65
  Ta0+  Ta78  1  0.91100000  0.27800000  0.91100000  0.35
  Re0+  Re79  1  0.91100000  0.27800000  0.91100000  0.65
  Ta0+  Ta80  1  0.27800000  0.91100000  0.91100000  0.35
  Re0+  Re81  1  0.27800000  0.91100000  0.91100000  0.65
  Ta0+  Ta82  1  0.08900000  0.91100000  0.72200000  0.35
  Re0+  Re83  1  0.08900000  0.91100000  0.72200000  0.65
  Ta0+  Ta84  1  0.08900000  0.72200000  0.91100000  0.35
  Re0+  Re85  1  0.08900000  0.72200000  0.91100000  0.65
  Ta0+  Ta86  1  0.27800000  0.08900000  0.08900000  0.35
  Re0+  Re87  1  0.27800000  0.08900000  0.08900000  0.65
  Ta0+  Ta88  1  0.08900000  0.08900000  0.27800000  0.35
  Re0+  Re89  1  0.08900000  0.08900000  0.27800000  0.65
  Ta0+  Ta90  1  0.08900000  0.27800000  0.08900000  0.35
  Re0+  Re91  1  0.08900000  0.27800000  0.08900000  0.65
  Ta0+  Ta92  1  0.22200000  0.41100000  0.58900000  0.35
  Re0+  Re93  1  0.22200000  0.41100000  0.58900000  0.65
  Ta0+  Ta94  1  0.41100000  0.41100000  0.77800000  0.35
  Re0+  Re95  1  0.41100000  0.41100000  0.77800000  0.65
  Ta0+  Ta96  1  0.41100000  0.22200000  0.58900000  0.35
  Re0+  Re97  1  0.41100000  0.22200000  0.58900000  0.65
  Ta0+  Ta98  1  0.22200000  0.58900000  0.41100000  0.35
  Re0+  Re99  1  0.22200000  0.58900000  0.41100000  0.65
  Ta0+  Ta100  1  0.41100000  0.58900000  0.22200000  0.35
  Re0+  Re101  1  0.41100000  0.58900000  0.22200000  0.65
  Ta0+  Ta102  1  0.41100000  0.77800000  0.41100000  0.35
  Re0+  Re103  1  0.41100000  0.77800000  0.41100000  0.65
  Ta0+  Ta104  1  0.77800000  0.41100000  0.41100000  0.35
  Re0+  Re105  1  0.77800000  0.41100000  0.41100000  0.65
  Ta0+  Ta106  1  0.58900000  0.41100000  0.22200000  0.35
  Re0+  Re107  1  0.58900000  0.41100000  0.22200000  0.65
  Ta0+  Ta108  1  0.58900000  0.22200000  0.41100000  0.35
  Re0+  Re109  1  0.58900000  0.22200000  0.41100000  0.65
  Ta0+  Ta110  1  0.77800000  0.58900000  0.58900000  0.35
  Re0+  Re111  1  0.77800000  0.58900000  0.58900000  0.65
  Ta0+  Ta112  1  0.58900000  0.58900000  0.77800000  0.35
  Re0+  Re113  1  0.58900000  0.58900000  0.77800000  0.65
  Ta0+  Ta114  1  0.58900000  0.77800000  0.58900000  0.35
  Re0+  Re115  1  0.58900000  0.77800000  0.58900000  0.65
