# generated using pymatgen
data_Ti7.25Tc50.75
_symmetry_space_group_name_H-M   'P 1'
_cell_length_a   9.57900000
_cell_length_b   9.57900000
_cell_length_c   9.57900000
_cell_angle_alpha   90.00000000
_cell_angle_beta   90.00000000
_cell_angle_gamma   90.00000000
_symmetry_Int_Tables_number   1
_chemical_formula_structural   Ti7.25Tc50.75
_chemical_formula_sum   'Ti7.25 Tc50.75'
_cell_volume   878.94261154
_cell_formula_units_Z   1
loop_
 _symmetry_equiv_pos_site_id
 _symmetry_equiv_pos_as_xyz
  1  'x, y, z'
loop_
 _atom_type_symbol
 _atom_type_oxidation_number
  Ti0+  0.0
  Tc0+  0.0
loop_
 _atom_site_type_symbol
 _atom_site_label
 _atom_site_symmetry_multiplicity
 _atom_site_fract_x
 _atom_site_fract_y
 _atom_site_fract_z
 _atom_site_occupancy
  Ti0+  Ti0  1  0.00000000  0.00000000  0.00000000  0.725
  Tc0+  Tc1  1  0.00000000  0.00000000  0.00000000  0.275
  Ti0+  Ti2  1  0.50000000  0.50000000  0.50000000  0.725
  Tc0+  Tc3  1  0.50000000  0.50000000  0.50000000  0.275
  Ti0+  Ti4  1  0.68300000  0.68300000  0.31700000  0.725
  Tc0+  Tc5  1  0.68300000  0.68300000  0.31700000  0.275
  Ti0+  Ti6  1  0.68300000  0.31700000  0.68300000  0.725
  Tc0+  Tc7  1  0.68300000  0.31700000  0.68300000  0.275
  Ti0+  Ti8  1  0.31700000  0.68300000  0.68300000  0.725
  Tc0+  Tc9  1  0.31700000  0.68300000  0.68300000  0.275
  Ti0+  Ti10  1  0.31700000  0.31700000  0.31700000  0.725
  Tc0+  Tc11  1  0.31700000  0.31700000  0.31700000  0.275
  Ti0+  Ti12  1  0.18300000  0.18300000  0.81700000  0.725
  Tc0+  Tc13  1  0.18300000  0.18300000  0.81700000  0.275
  Ti0+  Ti14  1  0.18300000  0.81700000  0.18300000  0.725
  Tc0+  Tc15  1  0.18300000  0.81700000  0.18300000  0.275
  Ti0+  Ti16  1  0.81700000  0.18300000  0.18300000  0.725
  Tc0+  Tc17  1  0.81700000  0.18300000  0.18300000  0.275
  Ti0+  Ti18  1  0.81700000  0.81700000  0.81700000  0.725
  Tc0+  Tc19  1  0.81700000  0.81700000  0.81700000  0.275
  Tc0+  Tc20  1  0.95800000  0.64400000  0.35600000  1.0
  Tc0+  Tc21  1  0.64400000  0.64400000  0.04200000  1.0
  Tc0+  Tc22  1  0.64400000  0.95800000  0.35600000  1.0
  Tc0+  Tc23  1  0.95800000  0.35600000  0.64400000  1.0
  Tc0+  Tc24  1  0.64400000  0.35600000  0.95800000  1.0
  Tc0+  Tc25  1  0.64400000  0.04200000  0.64400000  1.0
  Tc0+  Tc26  1  0.04200000  0.64400000  0.64400000  1.0
  Tc0+  Tc27  1  0.35600000  0.64400000  0.95800000  1.0
  Tc0+  Tc28  1  0.35600000  0.95800000  0.64400000  1.0
  Tc0+  Tc29  1  0.04200000  0.35600000  0.35600000  1.0
  Tc0+  Tc30  1  0.35600000  0.35600000  0.04200000  1.0
  Tc0+  Tc31  1  0.35600000  0.04200000  0.35600000  1.0
  Tc0+  Tc32  1  0.45800000  0.14400000  0.85600000  1.0
  Tc0+  Tc33  1  0.14400000  0.14400000  0.54200000  1.0
  Tc0+  Tc34  1  0.14400000  0.45800000  0.85600000  1.0
  Tc0+  Tc35  1  0.45800000  0.85600000  0.14400000  1.0
  Tc0+  Tc36  1  0.14400000  0.85600000  0.45800000  1.0
  Tc0+  Tc37  1  0.14400000  0.54200000  0.14400000  1.0
  Tc0+  Tc38  1  0.54200000  0.14400000  0.14400000  1.0
  Tc0+  Tc39  1  0.85600000  0.14400000  0.45800000  1.0
  Tc0+  Tc40  1  0.85600000  0.45800000  0.14400000  1.0
  Tc0+  Tc41  1  0.54200000  0.85600000  0.85600000  1.0
  Tc0+  Tc42  1  0.85600000  0.85600000  0.54200000  1.0
  Tc0+  Tc43  1  0.85600000  0.54200000  0.85600000  1.0
  Tc0+  Tc44  1  0.72200000  0.91100000  0.08900000  1.0
  Tc0+  Tc45  1  0.91100000  0.91100000  0.27800000  1.0
  Tc0+  Tc46  1  0.91100000  0.72200000  0.08900000  1.0
  Tc0+  Tc47  1  0.72200000  0.08900000  0.91100000  1.0
  Tc0+  Tc48  1  0.91100000  0.08900000  0.72200000  1.0
  Tc0+  Tc49  1  0.91100000  0.27800000  0.91100000  1.0
  Tc0+  Tc50  1  0.27800000  0.91100000  0.91100000  1.0
  Tc0+  Tc51  1  0.08900000  0.91100000  0.72200000  1.0
  Tc0+  Tc52  1  0.08900000  0.72200000  0.91100000  1.0
  Tc0+  Tc53  1  0.27800000  0.08900000  0.08900000  1.0
  Tc0+  Tc54  1  0.08900000  0.08900000  0.27800000  1.0
  Tc0+  Tc55  1  0.08900000  0.27800000  0.08900000  1.0
  Tc0+  Tc56  1  0.22200000  0.41100000  0.58900000  1.0
  Tc0+  Tc57  1  0.41100000  0.41100000  0.77800000  1.0
  Tc0+  Tc58  1  0.41100000  0.22200000  0.58900000  1.0
  Tc0+  Tc59  1  0.22200000  0.58900000  0.41100000  1.0
  Tc0+  Tc60  1  0.41100000  0.58900000  0.22200000  1.0
  Tc0+  Tc61  1  0.41100000  0.77800000  0.41100000  1.0
  Tc0+  Tc62  1  0.77800000  0.41100000  0.41100000  1.0
  Tc0+  Tc63  1  0.58900000  0.41100000  0.22200000  1.0
  Tc0+  Tc64  1  0.58900000  0.22200000  0.41100000  1.0
  Tc0+  Tc65  1  0.77800000  0.58900000  0.58900000  1.0
  Tc0+  Tc66  1  0.58900000  0.58900000  0.77800000  1.0
  Tc0+  Tc67  1  0.58900000  0.77800000  0.58900000  1.0
