# generated using pymatgen
data_Ti0.026V1.974
_symmetry_space_group_name_H-M   'P 1'
_cell_length_a   3.00300000
_cell_length_b   3.00300000
_cell_length_c   3.00300000
_cell_angle_alpha   90.00000000
_cell_angle_beta   90.00000000
_cell_angle_gamma   90.00000000
_symmetry_Int_Tables_number   1
_chemical_formula_structural   Ti0.026V1.974
_chemical_formula_sum   'Ti0.026 V1.974'
_cell_volume   27.08108103
_cell_formula_units_Z   1
loop_
 _symmetry_equiv_pos_site_id
 _symmetry_equiv_pos_as_xyz
  1  'x, y, z'
loop_
 _atom_type_symbol
 _atom_type_oxidation_number
  Ti0+  0.0
  V0+  0.0
loop_
 _atom_site_type_symbol
 _atom_site_label
 _atom_site_symmetry_multiplicity
 _atom_site_fract_x
 _atom_site_fract_y
 _atom_site_fract_z
 _atom_site_occupancy
  Ti0+  Ti0  1  0.00000000  0.00000000  0.00000000  0.013
  V0+  V1  1  0.00000000  0.00000000  0.00000000  0.987
  Ti0+  Ti2  1  0.50000000  0.50000000  0.50000000  0.013
  V0+  V3  1  0.50000000  0.50000000  0.50000000  0.987
