# generated using pymatgen
data_Th0.2Zr1.8
_symmetry_space_group_name_H-M   'P 1'
_cell_length_a   3.25800000
_cell_length_b   3.25800000
_cell_length_c   5.24800000
_cell_angle_alpha   90.00000000
_cell_angle_beta   90.00000000
_cell_angle_gamma   120.00000000
_symmetry_Int_Tables_number   1
_chemical_formula_structural   Th0.2Zr1.8
_chemical_formula_sum   'Th0.2 Zr1.8'
_cell_volume   48.24214592
_cell_formula_units_Z   1
loop_
 _symmetry_equiv_pos_site_id
 _symmetry_equiv_pos_as_xyz
  1  'x, y, z'
loop_
 _atom_type_symbol
 _atom_type_oxidation_number
  Th0+  0.0
  Zr0+  0.0
loop_
 _atom_site_type_symbol
 _atom_site_label
 _atom_site_symmetry_multiplicity
 _atom_site_fract_x
 _atom_site_fract_y
 _atom_site_fract_z
 _atom_site_occupancy
  Th0+  Th0  1  0.33333333  0.66666667  0.25000000  0.1
  Zr0+  Zr1  1  0.33333333  0.66666667  0.25000000  0.9
  Th0+  Th2  1  0.66666667  0.33333333  0.75000000  0.1
  Zr0+  Zr3  1  0.66666667  0.33333333  0.75000000  0.9
