# generated using pymatgen
data_Ba2Ho1Cu3O6.96
_symmetry_space_group_name_H-M   'P 1'
_cell_length_a   3.88510000
_cell_length_b   3.82050000
_cell_length_c   11.68220000
_cell_angle_alpha   90.00000000
_cell_angle_beta   90.00000000
_cell_angle_gamma   90.00000000
_symmetry_Int_Tables_number   1
_chemical_formula_structural   Ba2Ho1Cu3O6.96
_chemical_formula_sum   'Ba2 Ho1 Cu3 O6.96'
_cell_volume   173.39918140
_cell_formula_units_Z   1
loop_
 _symmetry_equiv_pos_site_id
 _symmetry_equiv_pos_as_xyz
  1  'x, y, z'
loop_
 _atom_type_symbol
 _atom_type_oxidation_number
  Ba2+  2.0
  Ho3+  3.0
  Cu2+  2.0
  Cu3+  3.0
  O2-  -2.0
loop_
 _atom_site_type_symbol
 _atom_site_label
 _atom_site_symmetry_multiplicity
 _atom_site_fract_x
 _atom_site_fract_y
 _atom_site_fract_z
 _atom_site_occupancy
  Ba2+  Ba0  1  0.50000000  0.50000000  0.18430000  1.0
  Ba2+  Ba1  1  0.50000000  0.50000000  0.81570000  1.0
  Ho3+  Ho2  1  0.50000000  0.50000000  0.50000000  1.0
  Cu2+  Cu3  1  0.00000000  0.00000000  0.35450000  1.0
  Cu2+  Cu4  1  0.00000000  0.00000000  0.64550000  1.0
  Cu3+  Cu5  1  0.00000000  0.00000000  0.00000000  1.0
  O2-  O6  1  0.00000000  0.00000000  0.15940000  1.0
  O2-  O7  1  0.00000000  0.00000000  0.84060000  1.0
  O2-  O8  1  0.00000000  0.50000000  0.37840000  1.0
  O2-  O9  1  0.00000000  0.50000000  0.62160000  1.0
  O2-  O10  1  0.50000000  0.00000000  0.37750000  1.0
  O2-  O11  1  0.50000000  0.00000000  0.62250000  1.0
  O2-  O12  1  0.00000000  0.50000000  0.00000000  0.07
  O2-  O13  1  0.50000000  0.00000000  0.00000000  0.89
