# generated using pymatgen
data_Ba2Y1Cu3O6.85
_symmetry_space_group_name_H-M   'P 1'
_cell_length_a   3.83000000
_cell_length_b   3.89500000
_cell_length_c   11.73740000
_cell_angle_alpha   90.00000000
_cell_angle_beta   90.00000000
_cell_angle_gamma   90.00000000
_symmetry_Int_Tables_number   1
_chemical_formula_structural   Ba2Y1Cu3O6.85
_chemical_formula_sum   'Ba2 Y1 Cu3 O6.85'
_cell_volume   175.09677259
_cell_formula_units_Z   1
loop_
 _symmetry_equiv_pos_site_id
 _symmetry_equiv_pos_as_xyz
  1  'x, y, z'
loop_
 _atom_type_symbol
 _atom_type_oxidation_number
  Ba2+  2.0
  Y3+  3.0
  Cu1.85+  1.85
  Cu3+  3.0
  O2-  -2.0
loop_
 _atom_site_type_symbol
 _atom_site_label
 _atom_site_symmetry_multiplicity
 _atom_site_fract_x
 _atom_site_fract_y
 _atom_site_fract_z
 _atom_site_occupancy
  Ba2+  Ba0  1  0.50000000  0.50000000  0.18480000  1.0
  Ba2+  Ba1  1  0.50000000  0.50000000  0.81520000  1.0
  Y3+  Y2  1  0.50000000  0.50000000  0.50000000  1.0
  Cu1.85+  Cu3  1  0.00000000  0.00000000  0.35530000  1.0
  Cu1.85+  Cu4  1  0.00000000  0.00000000  0.64470000  1.0
  Cu3+  Cu5  1  0.00000000  0.00000000  0.00000000  1.0
  O2-  O6  1  0.50000000  0.00000000  0.37730000  1.0
  O2-  O7  1  0.50000000  0.00000000  0.62270000  1.0
  O2-  O8  1  0.00000000  0.00000000  0.15750000  0.95
  O2-  O9  1  0.00000000  0.00000000  0.84250000  0.95
  O2-  O10  1  0.00000000  0.50000000  0.37780000  0.98
  O2-  O11  1  0.00000000  0.50000000  0.62220000  0.98
  O2-  O12  1  0.00000000  0.50000000  0.00000000  0.99
