# generated using pymatgen
data_CsRb2C60
_symmetry_space_group_name_H-M   'P 1'
_cell_length_a   14.49300000
_cell_length_b   14.49300000
_cell_length_c   14.49300000
_cell_angle_alpha   90.00000000
_cell_angle_beta   90.00000000
_cell_angle_gamma   90.00000000
_symmetry_Int_Tables_number   1
_chemical_formula_structural   CsRb2C60
_chemical_formula_sum   'Cs4 Rb8 C240'
_cell_volume   3044.21188116
_cell_formula_units_Z   4
loop_
 _symmetry_equiv_pos_site_id
 _symmetry_equiv_pos_as_xyz
  1  'x, y, z'
loop_
 _atom_type_symbol
 _atom_type_oxidation_number
  Cs+  1.0
  Rb+  1.0
  C0+  0.0
loop_
 _atom_site_type_symbol
 _atom_site_label
 _atom_site_symmetry_multiplicity
 _atom_site_fract_x
 _atom_site_fract_y
 _atom_site_fract_z
 _atom_site_occupancy
  Cs+  Cs0  1  0.50000000  0.50000000  0.50000000  1.0
  Cs+  Cs1  1  0.50000000  0.00000000  0.00000000  1.0
  Cs+  Cs2  1  0.00000000  0.50000000  0.00000000  1.0
  Cs+  Cs3  1  0.00000000  0.00000000  0.50000000  1.0
  Rb+  Rb4  1  0.25000000  0.25000000  0.75000000  1.0
  Rb+  Rb5  1  0.25000000  0.75000000  0.25000000  1.0
  Rb+  Rb6  1  0.75000000  0.25000000  0.25000000  1.0
  Rb+  Rb7  1  0.75000000  0.75000000  0.75000000  1.0
  Rb+  Rb8  1  0.75000000  0.75000000  0.25000000  1.0
  Rb+  Rb9  1  0.75000000  0.25000000  0.75000000  1.0
  Rb+  Rb10  1  0.25000000  0.75000000  0.75000000  1.0
  Rb+  Rb11  1  0.25000000  0.25000000  0.25000000  1.0
  C0+  C12  1  0.23900000  0.04900000  0.00000000  0.5
  C0+  C13  1  0.04900000  0.00000000  0.76100000  0.5
  C0+  C14  1  0.00000000  0.23900000  0.95100000  0.5
  C0+  C15  1  0.23900000  0.00000000  0.95100000  0.5
  C0+  C16  1  0.04900000  0.23900000  0.00000000  0.5
  C0+  C17  1  0.00000000  0.04900000  0.76100000  0.5
  C0+  C18  1  0.23900000  0.95100000  0.00000000  0.5
  C0+  C19  1  0.04900000  0.00000000  0.23900000  0.5
  C0+  C20  1  0.00000000  0.76100000  0.04900000  0.5
  C0+  C21  1  0.23900000  0.00000000  0.04900000  0.5
  C0+  C22  1  0.04900000  0.76100000  0.00000000  0.5
  C0+  C23  1  0.00000000  0.95100000  0.23900000  0.5
  C0+  C24  1  0.76100000  0.04900000  0.00000000  0.5
  C0+  C25  1  0.95100000  0.00000000  0.23900000  0.5
  C0+  C26  1  0.00000000  0.23900000  0.04900000  0.5
  C0+  C27  1  0.76100000  0.00000000  0.04900000  0.5
  C0+  C28  1  0.95100000  0.23900000  0.00000000  0.5
  C0+  C29  1  0.00000000  0.04900000  0.23900000  0.5
  C0+  C30  1  0.76100000  0.95100000  0.00000000  0.5
  C0+  C31  1  0.95100000  0.00000000  0.76100000  0.5
  C0+  C32  1  0.00000000  0.76100000  0.95100000  0.5
  C0+  C33  1  0.76100000  0.00000000  0.95100000  0.5
  C0+  C34  1  0.95100000  0.76100000  0.00000000  0.5
  C0+  C35  1  0.00000000  0.95100000  0.76100000  0.5
  C0+  C36  1  0.23900000  0.54900000  0.50000000  0.5
  C0+  C37  1  0.04900000  0.50000000  0.26100000  0.5
  C0+  C38  1  0.00000000  0.73900000  0.45100000  0.5
  C0+  C39  1  0.23900000  0.50000000  0.45100000  0.5
  C0+  C40  1  0.04900000  0.73900000  0.50000000  0.5
  C0+  C41  1  0.00000000  0.54900000  0.26100000  0.5
  C0+  C42  1  0.23900000  0.45100000  0.50000000  0.5
  C0+  C43  1  0.04900000  0.50000000  0.73900000  0.5
  C0+  C44  1  0.00000000  0.26100000  0.54900000  0.5
  C0+  C45  1  0.23900000  0.50000000  0.54900000  0.5
  C0+  C46  1  0.04900000  0.26100000  0.50000000  0.5
  C0+  C47  1  0.00000000  0.45100000  0.73900000  0.5
  C0+  C48  1  0.76100000  0.54900000  0.50000000  0.5
  C0+  C49  1  0.95100000  0.50000000  0.73900000  0.5
  C0+  C50  1  0.00000000  0.73900000  0.54900000  0.5
  C0+  C51  1  0.76100000  0.50000000  0.54900000  0.5
  C0+  C52  1  0.95100000  0.73900000  0.50000000  0.5
  C0+  C53  1  0.00000000  0.54900000  0.73900000  0.5
  C0+  C54  1  0.76100000  0.45100000  0.50000000  0.5
  C0+  C55  1  0.95100000  0.50000000  0.26100000  0.5
  C0+  C56  1  0.00000000  0.26100000  0.45100000  0.5
  C0+  C57  1  0.76100000  0.50000000  0.45100000  0.5
  C0+  C58  1  0.95100000  0.26100000  0.50000000  0.5
  C0+  C59  1  0.00000000  0.45100000  0.26100000  0.5
  C0+  C60  1  0.73900000  0.04900000  0.50000000  0.5
  C0+  C61  1  0.54900000  0.00000000  0.26100000  0.5
  C0+  C62  1  0.50000000  0.23900000  0.45100000  0.5
  C0+  C63  1  0.73900000  0.00000000  0.45100000  0.5
  C0+  C64  1  0.54900000  0.23900000  0.50000000  0.5
  C0+  C65  1  0.50000000  0.04900000  0.26100000  0.5
  C0+  C66  1  0.73900000  0.95100000  0.50000000  0.5
  C0+  C67  1  0.54900000  0.00000000  0.73900000  0.5
  C0+  C68  1  0.50000000  0.76100000  0.54900000  0.5
  C0+  C69  1  0.73900000  0.00000000  0.54900000  0.5
  C0+  C70  1  0.54900000  0.76100000  0.50000000  0.5
  C0+  C71  1  0.50000000  0.95100000  0.73900000  0.5
  C0+  C72  1  0.26100000  0.04900000  0.50000000  0.5
  C0+  C73  1  0.45100000  0.00000000  0.73900000  0.5
  C0+  C74  1  0.50000000  0.23900000  0.54900000  0.5
  C0+  C75  1  0.26100000  0.00000000  0.54900000  0.5
  C0+  C76  1  0.45100000  0.23900000  0.50000000  0.5
  C0+  C77  1  0.50000000  0.04900000  0.73900000  0.5
  C0+  C78  1  0.26100000  0.95100000  0.50000000  0.5
  C0+  C79  1  0.45100000  0.00000000  0.26100000  0.5
  C0+  C80  1  0.50000000  0.76100000  0.45100000  0.5
  C0+  C81  1  0.26100000  0.00000000  0.45100000  0.5
  C0+  C82  1  0.45100000  0.76100000  0.50000000  0.5
  C0+  C83  1  0.50000000  0.95100000  0.26100000  0.5
  C0+  C84  1  0.73900000  0.54900000  0.00000000  0.5
  C0+  C85  1  0.54900000  0.50000000  0.76100000  0.5
  C0+  C86  1  0.50000000  0.73900000  0.95100000  0.5
  C0+  C87  1  0.73900000  0.50000000  0.95100000  0.5
  C0+  C88  1  0.54900000  0.73900000  0.00000000  0.5
  C0+  C89  1  0.50000000  0.54900000  0.76100000  0.5
  C0+  C90  1  0.73900000  0.45100000  0.00000000  0.5
  C0+  C91  1  0.54900000  0.50000000  0.23900000  0.5
  C0+  C92  1  0.50000000  0.26100000  0.04900000  0.5
  C0+  C93  1  0.73900000  0.50000000  0.04900000  0.5
  C0+  C94  1  0.54900000  0.26100000  0.00000000  0.5
  C0+  C95  1  0.50000000  0.45100000  0.23900000  0.5
  C0+  C96  1  0.26100000  0.54900000  0.00000000  0.5
  C0+  C97  1  0.45100000  0.50000000  0.23900000  0.5
  C0+  C98  1  0.50000000  0.73900000  0.04900000  0.5
  C0+  C99  1  0.26100000  0.50000000  0.04900000  0.5
  C0+  C100  1  0.45100000  0.73900000  0.00000000  0.5
  C0+  C101  1  0.50000000  0.54900000  0.23900000  0.5
  C0+  C102  1  0.26100000  0.45100000  0.00000000  0.5
  C0+  C103  1  0.45100000  0.50000000  0.76100000  0.5
  C0+  C104  1  0.50000000  0.26100000  0.95100000  0.5
  C0+  C105  1  0.26100000  0.50000000  0.95100000  0.5
  C0+  C106  1  0.45100000  0.26100000  0.00000000  0.5
  C0+  C107  1  0.50000000  0.45100000  0.76100000  0.5
  C0+  C108  1  0.09800000  0.08000000  0.79100000  0.5
  C0+  C109  1  0.08000000  0.20900000  0.90200000  0.5
  C0+  C110  1  0.20900000  0.09800000  0.92000000  0.5
  C0+  C111  1  0.09800000  0.20900000  0.92000000  0.5
  C0+  C112  1  0.08000000  0.09800000  0.79100000  0.5
  C0+  C113  1  0.20900000  0.08000000  0.90200000  0.5
  C0+  C114  1  0.09800000  0.92000000  0.20900000  0.5
  C0+  C115  1  0.08000000  0.79100000  0.09800000  0.5
  C0+  C116  1  0.20900000  0.90200000  0.08000000  0.5
  C0+  C117  1  0.09800000  0.79100000  0.08000000  0.5
  C0+  C118  1  0.08000000  0.90200000  0.20900000  0.5
  C0+  C119  1  0.20900000  0.92000000  0.09800000  0.5
  C0+  C120  1  0.90200000  0.08000000  0.20900000  0.5
  C0+  C121  1  0.92000000  0.20900000  0.09800000  0.5
  C0+  C122  1  0.79100000  0.09800000  0.08000000  0.5
  C0+  C123  1  0.90200000  0.20900000  0.08000000  0.5
  C0+  C124  1  0.92000000  0.09800000  0.20900000  0.5
  C0+  C125  1  0.79100000  0.08000000  0.09800000  0.5
  C0+  C126  1  0.90200000  0.92000000  0.79100000  0.5
  C0+  C127  1  0.92000000  0.79100000  0.90200000  0.5
  C0+  C128  1  0.79100000  0.90200000  0.92000000  0.5
  C0+  C129  1  0.90200000  0.79100000  0.92000000  0.5
  C0+  C130  1  0.92000000  0.90200000  0.79100000  0.5
  C0+  C131  1  0.79100000  0.92000000  0.90200000  0.5
  C0+  C132  1  0.90200000  0.92000000  0.20900000  0.5
  C0+  C133  1  0.92000000  0.79100000  0.09800000  0.5
  C0+  C134  1  0.79100000  0.90200000  0.08000000  0.5
  C0+  C135  1  0.90200000  0.79100000  0.08000000  0.5
  C0+  C136  1  0.92000000  0.90200000  0.20900000  0.5
  C0+  C137  1  0.79100000  0.92000000  0.09800000  0.5
  C0+  C138  1  0.90200000  0.08000000  0.79100000  0.5
  C0+  C139  1  0.92000000  0.20900000  0.90200000  0.5
  C0+  C140  1  0.79100000  0.09800000  0.92000000  0.5
  C0+  C141  1  0.90200000  0.20900000  0.92000000  0.5
  C0+  C142  1  0.92000000  0.09800000  0.79100000  0.5
  C0+  C143  1  0.79100000  0.08000000  0.90200000  0.5
  C0+  C144  1  0.09800000  0.92000000  0.79100000  0.5
  C0+  C145  1  0.08000000  0.79100000  0.90200000  0.5
  C0+  C146  1  0.20900000  0.90200000  0.92000000  0.5
  C0+  C147  1  0.09800000  0.79100000  0.92000000  0.5
  C0+  C148  1  0.08000000  0.90200000  0.79100000  0.5
  C0+  C149  1  0.20900000  0.92000000  0.90200000  0.5
  C0+  C150  1  0.09800000  0.08000000  0.20900000  0.5
  C0+  C151  1  0.08000000  0.20900000  0.09800000  0.5
  C0+  C152  1  0.20900000  0.09800000  0.08000000  0.5
  C0+  C153  1  0.09800000  0.20900000  0.08000000  0.5
  C0+  C154  1  0.08000000  0.09800000  0.20900000  0.5
  C0+  C155  1  0.20900000  0.08000000  0.09800000  0.5
  C0+  C156  1  0.09800000  0.58000000  0.29100000  0.5
  C0+  C157  1  0.08000000  0.70900000  0.40200000  0.5
  C0+  C158  1  0.20900000  0.59800000  0.42000000  0.5
  C0+  C159  1  0.09800000  0.70900000  0.42000000  0.5
  C0+  C160  1  0.08000000  0.59800000  0.29100000  0.5
  C0+  C161  1  0.20900000  0.58000000  0.40200000  0.5
  C0+  C162  1  0.09800000  0.42000000  0.70900000  0.5
  C0+  C163  1  0.08000000  0.29100000  0.59800000  0.5
  C0+  C164  1  0.20900000  0.40200000  0.58000000  0.5
  C0+  C165  1  0.09800000  0.29100000  0.58000000  0.5
  C0+  C166  1  0.08000000  0.40200000  0.70900000  0.5
  C0+  C167  1  0.20900000  0.42000000  0.59800000  0.5
  C0+  C168  1  0.90200000  0.58000000  0.70900000  0.5
  C0+  C169  1  0.92000000  0.70900000  0.59800000  0.5
  C0+  C170  1  0.79100000  0.59800000  0.58000000  0.5
  C0+  C171  1  0.90200000  0.70900000  0.58000000  0.5
  C0+  C172  1  0.92000000  0.59800000  0.70900000  0.5
  C0+  C173  1  0.79100000  0.58000000  0.59800000  0.5
  C0+  C174  1  0.90200000  0.42000000  0.29100000  0.5
  C0+  C175  1  0.92000000  0.29100000  0.40200000  0.5
  C0+  C176  1  0.79100000  0.40200000  0.42000000  0.5
  C0+  C177  1  0.90200000  0.29100000  0.42000000  0.5
  C0+  C178  1  0.92000000  0.40200000  0.29100000  0.5
  C0+  C179  1  0.79100000  0.42000000  0.40200000  0.5
  C0+  C180  1  0.90200000  0.42000000  0.70900000  0.5
  C0+  C181  1  0.92000000  0.29100000  0.59800000  0.5
  C0+  C182  1  0.79100000  0.40200000  0.58000000  0.5
  C0+  C183  1  0.90200000  0.29100000  0.58000000  0.5
  C0+  C184  1  0.92000000  0.40200000  0.70900000  0.5
  C0+  C185  1  0.79100000  0.42000000  0.59800000  0.5
  C0+  C186  1  0.90200000  0.58000000  0.29100000  0.5
  C0+  C187  1  0.92000000  0.70900000  0.40200000  0.5
  C0+  C188  1  0.79100000  0.59800000  0.42000000  0.5
  C0+  C189  1  0.90200000  0.70900000  0.42000000  0.5
  C0+  C190  1  0.92000000  0.59800000  0.29100000  0.5
  C0+  C191  1  0.79100000  0.58000000  0.40200000  0.5
  C0+  C192  1  0.09800000  0.42000000  0.29100000  0.5
  C0+  C193  1  0.08000000  0.29100000  0.40200000  0.5
  C0+  C194  1  0.20900000  0.40200000  0.42000000  0.5
  C0+  C195  1  0.09800000  0.29100000  0.42000000  0.5
  C0+  C196  1  0.08000000  0.40200000  0.29100000  0.5
  C0+  C197  1  0.20900000  0.42000000  0.40200000  0.5
  C0+  C198  1  0.09800000  0.58000000  0.70900000  0.5
  C0+  C199  1  0.08000000  0.70900000  0.59800000  0.5
  C0+  C200  1  0.20900000  0.59800000  0.58000000  0.5
  C0+  C201  1  0.09800000  0.70900000  0.58000000  0.5
  C0+  C202  1  0.08000000  0.59800000  0.70900000  0.5
  C0+  C203  1  0.20900000  0.58000000  0.59800000  0.5
  C0+  C204  1  0.59800000  0.08000000  0.29100000  0.5
  C0+  C205  1  0.58000000  0.20900000  0.40200000  0.5
  C0+  C206  1  0.70900000  0.09800000  0.42000000  0.5
  C0+  C207  1  0.59800000  0.20900000  0.42000000  0.5
  C0+  C208  1  0.58000000  0.09800000  0.29100000  0.5
  C0+  C209  1  0.70900000  0.08000000  0.40200000  0.5
  C0+  C210  1  0.59800000  0.92000000  0.70900000  0.5
  C0+  C211  1  0.58000000  0.79100000  0.59800000  0.5
  C0+  C212  1  0.70900000  0.90200000  0.58000000  0.5
  C0+  C213  1  0.59800000  0.79100000  0.58000000  0.5
  C0+  C214  1  0.58000000  0.90200000  0.70900000  0.5
  C0+  C215  1  0.70900000  0.92000000  0.59800000  0.5
  C0+  C216  1  0.40200000  0.08000000  0.70900000  0.5
  C0+  C217  1  0.42000000  0.20900000  0.59800000  0.5
  C0+  C218  1  0.29100000  0.09800000  0.58000000  0.5
  C0+  C219  1  0.40200000  0.20900000  0.58000000  0.5
  C0+  C220  1  0.42000000  0.09800000  0.70900000  0.5
  C0+  C221  1  0.29100000  0.08000000  0.59800000  0.5
  C0+  C222  1  0.40200000  0.92000000  0.29100000  0.5
  C0+  C223  1  0.42000000  0.79100000  0.40200000  0.5
  C0+  C224  1  0.29100000  0.90200000  0.42000000  0.5
  C0+  C225  1  0.40200000  0.79100000  0.42000000  0.5
  C0+  C226  1  0.42000000  0.90200000  0.29100000  0.5
  C0+  C227  1  0.29100000  0.92000000  0.40200000  0.5
  C0+  C228  1  0.40200000  0.92000000  0.70900000  0.5
  C0+  C229  1  0.42000000  0.79100000  0.59800000  0.5
  C0+  C230  1  0.29100000  0.90200000  0.58000000  0.5
  C0+  C231  1  0.40200000  0.79100000  0.58000000  0.5
  C0+  C232  1  0.42000000  0.90200000  0.70900000  0.5
  C0+  C233  1  0.29100000  0.92000000  0.59800000  0.5
  C0+  C234  1  0.40200000  0.08000000  0.29100000  0.5
  C0+  C235  1  0.42000000  0.20900000  0.40200000  0.5
  C0+  C236  1  0.29100000  0.09800000  0.42000000  0.5
  C0+  C237  1  0.40200000  0.20900000  0.42000000  0.5
  C0+  C238  1  0.42000000  0.09800000  0.29100000  0.5
  C0+  C239  1  0.29100000  0.08000000  0.40200000  0.5
  C0+  C240  1  0.59800000  0.92000000  0.29100000  0.5
  C0+  C241  1  0.58000000  0.79100000  0.40200000  0.5
  C0+  C242  1  0.70900000  0.90200000  0.42000000  0.5
  C0+  C243  1  0.59800000  0.79100000  0.42000000  0.5
  C0+  C244  1  0.58000000  0.90200000  0.29100000  0.5
  C0+  C245  1  0.70900000  0.92000000  0.40200000  0.5
  C0+  C246  1  0.59800000  0.08000000  0.70900000  0.5
  C0+  C247  1  0.58000000  0.20900000  0.59800000  0.5
  C0+  C248  1  0.70900000  0.09800000  0.58000000  0.5
  C0+  C249  1  0.59800000  0.20900000  0.58000000  0.5
  C0+  C250  1  0.58000000  0.09800000  0.70900000  0.5
  C0+  C251  1  0.70900000  0.08000000  0.59800000  0.5
  C0+  C252  1  0.59800000  0.58000000  0.79100000  0.5
  C0+  C253  1  0.58000000  0.70900000  0.90200000  0.5
  C0+  C254  1  0.70900000  0.59800000  0.92000000  0.5
  C0+  C255  1  0.59800000  0.70900000  0.92000000  0.5
  C0+  C256  1  0.58000000  0.59800000  0.79100000  0.5
  C0+  C257  1  0.70900000  0.58000000  0.90200000  0.5
  C0+  C258  1  0.59800000  0.42000000  0.20900000  0.5
  C0+  C259  1  0.58000000  0.29100000  0.09800000  0.5
  C0+  C260  1  0.70900000  0.40200000  0.08000000  0.5
  C0+  C261  1  0.59800000  0.29100000  0.08000000  0.5
  C0+  C262  1  0.58000000  0.40200000  0.20900000  0.5
  C0+  C263  1  0.70900000  0.42000000  0.09800000  0.5
  C0+  C264  1  0.40200000  0.58000000  0.20900000  0.5
  C0+  C265  1  0.42000000  0.70900000  0.09800000  0.5
  C0+  C266  1  0.29100000  0.59800000  0.08000000  0.5
  C0+  C267  1  0.40200000  0.70900000  0.08000000  0.5
  C0+  C268  1  0.42000000  0.59800000  0.20900000  0.5
  C0+  C269  1  0.29100000  0.58000000  0.09800000  0.5
  C0+  C270  1  0.40200000  0.42000000  0.79100000  0.5
  C0+  C271  1  0.42000000  0.29100000  0.90200000  0.5
  C0+  C272  1  0.29100000  0.40200000  0.92000000  0.5
  C0+  C273  1  0.40200000  0.29100000  0.92000000  0.5
  C0+  C274  1  0.42000000  0.40200000  0.79100000  0.5
  C0+  C275  1  0.29100000  0.42000000  0.90200000  0.5
  C0+  C276  1  0.40200000  0.42000000  0.20900000  0.5
  C0+  C277  1  0.42000000  0.29100000  0.09800000  0.5
  C0+  C278  1  0.29100000  0.40200000  0.08000000  0.5
  C0+  C279  1  0.40200000  0.29100000  0.08000000  0.5
  C0+  C280  1  0.42000000  0.40200000  0.20900000  0.5
  C0+  C281  1  0.29100000  0.42000000  0.09800000  0.5
  C0+  C282  1  0.40200000  0.58000000  0.79100000  0.5
  C0+  C283  1  0.42000000  0.70900000  0.90200000  0.5
  C0+  C284  1  0.29100000  0.59800000  0.92000000  0.5
  C0+  C285  1  0.40200000  0.70900000  0.92000000  0.5
  C0+  C286  1  0.42000000  0.59800000  0.79100000  0.5
  C0+  C287  1  0.29100000  0.58000000  0.90200000  0.5
  C0+  C288  1  0.59800000  0.42000000  0.79100000  0.5
  C0+  C289  1  0.58000000  0.29100000  0.90200000  0.5
  C0+  C290  1  0.70900000  0.40200000  0.92000000  0.5
  C0+  C291  1  0.59800000  0.29100000  0.92000000  0.5
  C0+  C292  1  0.58000000  0.40200000  0.79100000  0.5
  C0+  C293  1  0.70900000  0.42000000  0.90200000  0.5
  C0+  C294  1  0.59800000  0.58000000  0.20900000  0.5
  C0+  C295  1  0.58000000  0.70900000  0.09800000  0.5
  C0+  C296  1  0.70900000  0.59800000  0.08000000  0.5
  C0+  C297  1  0.59800000  0.70900000  0.08000000  0.5
  C0+  C298  1  0.58000000  0.59800000  0.20900000  0.5
  C0+  C299  1  0.70900000  0.58000000  0.09800000  0.5
  C0+  C300  1  0.04900000  0.15900000  0.82200000  0.5
  C0+  C301  1  0.15900000  0.17800000  0.95100000  0.5
  C0+  C302  1  0.17800000  0.04900000  0.84100000  0.5
  C0+  C303  1  0.04900000  0.17800000  0.84100000  0.5
  C0+  C304  1  0.15900000  0.04900000  0.82200000  0.5
  C0+  C305  1  0.17800000  0.15900000  0.95100000  0.5
  C0+  C306  1  0.04900000  0.84100000  0.17800000  0.5
  C0+  C307  1  0.15900000  0.82200000  0.04900000  0.5
  C0+  C308  1  0.17800000  0.95100000  0.15900000  0.5
  C0+  C309  1  0.04900000  0.82200000  0.15900000  0.5
  C0+  C310  1  0.15900000  0.95100000  0.17800000  0.5
  C0+  C311  1  0.17800000  0.84100000  0.04900000  0.5
  C0+  C312  1  0.95100000  0.15900000  0.17800000  0.5
  C0+  C313  1  0.84100000  0.17800000  0.04900000  0.5
  C0+  C314  1  0.82200000  0.04900000  0.15900000  0.5
  C0+  C315  1  0.95100000  0.17800000  0.15900000  0.5
  C0+  C316  1  0.84100000  0.04900000  0.17800000  0.5
  C0+  C317  1  0.82200000  0.15900000  0.04900000  0.5
  C0+  C318  1  0.95100000  0.84100000  0.82200000  0.5
  C0+  C319  1  0.84100000  0.82200000  0.95100000  0.5
  C0+  C320  1  0.82200000  0.95100000  0.84100000  0.5
  C0+  C321  1  0.95100000  0.82200000  0.84100000  0.5
  C0+  C322  1  0.84100000  0.95100000  0.82200000  0.5
  C0+  C323  1  0.82200000  0.84100000  0.95100000  0.5
  C0+  C324  1  0.95100000  0.84100000  0.17800000  0.5
  C0+  C325  1  0.84100000  0.82200000  0.04900000  0.5
  C0+  C326  1  0.82200000  0.95100000  0.15900000  0.5
  C0+  C327  1  0.95100000  0.82200000  0.15900000  0.5
  C0+  C328  1  0.84100000  0.95100000  0.17800000  0.5
  C0+  C329  1  0.82200000  0.84100000  0.04900000  0.5
  C0+  C330  1  0.95100000  0.15900000  0.82200000  0.5
  C0+  C331  1  0.84100000  0.17800000  0.95100000  0.5
  C0+  C332  1  0.82200000  0.04900000  0.84100000  0.5
  C0+  C333  1  0.95100000  0.17800000  0.84100000  0.5
  C0+  C334  1  0.84100000  0.04900000  0.82200000  0.5
  C0+  C335  1  0.82200000  0.15900000  0.95100000  0.5
  C0+  C336  1  0.04900000  0.84100000  0.82200000  0.5
  C0+  C337  1  0.15900000  0.82200000  0.95100000  0.5
  C0+  C338  1  0.17800000  0.95100000  0.84100000  0.5
  C0+  C339  1  0.04900000  0.82200000  0.84100000  0.5
  C0+  C340  1  0.15900000  0.95100000  0.82200000  0.5
  C0+  C341  1  0.17800000  0.84100000  0.95100000  0.5
  C0+  C342  1  0.04900000  0.15900000  0.17800000  0.5
  C0+  C343  1  0.15900000  0.17800000  0.04900000  0.5
  C0+  C344  1  0.17800000  0.04900000  0.15900000  0.5
  C0+  C345  1  0.04900000  0.17800000  0.15900000  0.5
  C0+  C346  1  0.15900000  0.04900000  0.17800000  0.5
  C0+  C347  1  0.17800000  0.15900000  0.04900000  0.5
  C0+  C348  1  0.04900000  0.65900000  0.32200000  0.5
  C0+  C349  1  0.15900000  0.67800000  0.45100000  0.5
  C0+  C350  1  0.17800000  0.54900000  0.34100000  0.5
  C0+  C351  1  0.04900000  0.67800000  0.34100000  0.5
  C0+  C352  1  0.15900000  0.54900000  0.32200000  0.5
  C0+  C353  1  0.17800000  0.65900000  0.45100000  0.5
  C0+  C354  1  0.04900000  0.34100000  0.67800000  0.5
  C0+  C355  1  0.15900000  0.32200000  0.54900000  0.5
  C0+  C356  1  0.17800000  0.45100000  0.65900000  0.5
  C0+  C357  1  0.04900000  0.32200000  0.65900000  0.5
  C0+  C358  1  0.15900000  0.45100000  0.67800000  0.5
  C0+  C359  1  0.17800000  0.34100000  0.54900000  0.5
  C0+  C360  1  0.95100000  0.65900000  0.67800000  0.5
  C0+  C361  1  0.84100000  0.67800000  0.54900000  0.5
  C0+  C362  1  0.82200000  0.54900000  0.65900000  0.5
  C0+  C363  1  0.95100000  0.67800000  0.65900000  0.5
  C0+  C364  1  0.84100000  0.54900000  0.67800000  0.5
  C0+  C365  1  0.82200000  0.65900000  0.54900000  0.5
  C0+  C366  1  0.95100000  0.34100000  0.32200000  0.5
  C0+  C367  1  0.84100000  0.32200000  0.45100000  0.5
  C0+  C368  1  0.82200000  0.45100000  0.34100000  0.5
  C0+  C369  1  0.95100000  0.32200000  0.34100000  0.5
  C0+  C370  1  0.84100000  0.45100000  0.32200000  0.5
  C0+  C371  1  0.82200000  0.34100000  0.45100000  0.5
  C0+  C372  1  0.95100000  0.34100000  0.67800000  0.5
  C0+  C373  1  0.84100000  0.32200000  0.54900000  0.5
  C0+  C374  1  0.82200000  0.45100000  0.65900000  0.5
  C0+  C375  1  0.95100000  0.32200000  0.65900000  0.5
  C0+  C376  1  0.84100000  0.45100000  0.67800000  0.5
  C0+  C377  1  0.82200000  0.34100000  0.54900000  0.5
  C0+  C378  1  0.95100000  0.65900000  0.32200000  0.5
  C0+  C379  1  0.84100000  0.67800000  0.45100000  0.5
  C0+  C380  1  0.82200000  0.54900000  0.34100000  0.5
  C0+  C381  1  0.95100000  0.67800000  0.34100000  0.5
  C0+  C382  1  0.84100000  0.54900000  0.32200000  0.5
  C0+  C383  1  0.82200000  0.65900000  0.45100000  0.5
  C0+  C384  1  0.04900000  0.34100000  0.32200000  0.5
  C0+  C385  1  0.15900000  0.32200000  0.45100000  0.5
  C0+  C386  1  0.17800000  0.45100000  0.34100000  0.5
  C0+  C387  1  0.04900000  0.32200000  0.34100000  0.5
  C0+  C388  1  0.15900000  0.45100000  0.32200000  0.5
  C0+  C389  1  0.17800000  0.34100000  0.45100000  0.5
  C0+  C390  1  0.04900000  0.65900000  0.67800000  0.5
  C0+  C391  1  0.15900000  0.67800000  0.54900000  0.5
  C0+  C392  1  0.17800000  0.54900000  0.65900000  0.5
  C0+  C393  1  0.04900000  0.67800000  0.65900000  0.5
  C0+  C394  1  0.15900000  0.54900000  0.67800000  0.5
  C0+  C395  1  0.17800000  0.65900000  0.54900000  0.5
  C0+  C396  1  0.54900000  0.15900000  0.32200000  0.5
  C0+  C397  1  0.65900000  0.17800000  0.45100000  0.5
  C0+  C398  1  0.67800000  0.04900000  0.34100000  0.5
  C0+  C399  1  0.54900000  0.17800000  0.34100000  0.5
  C0+  C400  1  0.65900000  0.04900000  0.32200000  0.5
  C0+  C401  1  0.67800000  0.15900000  0.45100000  0.5
  C0+  C402  1  0.54900000  0.84100000  0.67800000  0.5
  C0+  C403  1  0.65900000  0.82200000  0.54900000  0.5
  C0+  C404  1  0.67800000  0.95100000  0.65900000  0.5
  C0+  C405  1  0.54900000  0.82200000  0.65900000  0.5
  C0+  C406  1  0.65900000  0.95100000  0.67800000  0.5
  C0+  C407  1  0.67800000  0.84100000  0.54900000  0.5
  C0+  C408  1  0.45100000  0.15900000  0.67800000  0.5
  C0+  C409  1  0.34100000  0.17800000  0.54900000  0.5
  C0+  C410  1  0.32200000  0.04900000  0.65900000  0.5
  C0+  C411  1  0.45100000  0.17800000  0.65900000  0.5
  C0+  C412  1  0.34100000  0.04900000  0.67800000  0.5
  C0+  C413  1  0.32200000  0.15900000  0.54900000  0.5
  C0+  C414  1  0.45100000  0.84100000  0.32200000  0.5
  C0+  C415  1  0.34100000  0.82200000  0.45100000  0.5
  C0+  C416  1  0.32200000  0.95100000  0.34100000  0.5
  C0+  C417  1  0.45100000  0.82200000  0.34100000  0.5
  C0+  C418  1  0.34100000  0.95100000  0.32200000  0.5
  C0+  C419  1  0.32200000  0.84100000  0.45100000  0.5
  C0+  C420  1  0.45100000  0.84100000  0.67800000  0.5
  C0+  C421  1  0.34100000  0.82200000  0.54900000  0.5
  C0+  C422  1  0.32200000  0.95100000  0.65900000  0.5
  C0+  C423  1  0.45100000  0.82200000  0.65900000  0.5
  C0+  C424  1  0.34100000  0.95100000  0.67800000  0.5
  C0+  C425  1  0.32200000  0.84100000  0.54900000  0.5
  C0+  C426  1  0.45100000  0.15900000  0.32200000  0.5
  C0+  C427  1  0.34100000  0.17800000  0.45100000  0.5
  C0+  C428  1  0.32200000  0.04900000  0.34100000  0.5
  C0+  C429  1  0.45100000  0.17800000  0.34100000  0.5
  C0+  C430  1  0.34100000  0.04900000  0.32200000  0.5
  C0+  C431  1  0.32200000  0.15900000  0.45100000  0.5
  C0+  C432  1  0.54900000  0.84100000  0.32200000  0.5
  C0+  C433  1  0.65900000  0.82200000  0.45100000  0.5
  C0+  C434  1  0.67800000  0.95100000  0.34100000  0.5
  C0+  C435  1  0.54900000  0.82200000  0.34100000  0.5
  C0+  C436  1  0.65900000  0.95100000  0.32200000  0.5
  C0+  C437  1  0.67800000  0.84100000  0.45100000  0.5
  C0+  C438  1  0.54900000  0.15900000  0.67800000  0.5
  C0+  C439  1  0.65900000  0.17800000  0.54900000  0.5
  C0+  C440  1  0.67800000  0.04900000  0.65900000  0.5
  C0+  C441  1  0.54900000  0.17800000  0.65900000  0.5
  C0+  C442  1  0.65900000  0.04900000  0.67800000  0.5
  C0+  C443  1  0.67800000  0.15900000  0.54900000  0.5
  C0+  C444  1  0.54900000  0.65900000  0.82200000  0.5
  C0+  C445  1  0.65900000  0.67800000  0.95100000  0.5
  C0+  C446  1  0.67800000  0.54900000  0.84100000  0.5
  C0+  C447  1  0.54900000  0.67800000  0.84100000  0.5
  C0+  C448  1  0.65900000  0.54900000  0.82200000  0.5
  C0+  C449  1  0.67800000  0.65900000  0.95100000  0.5
  C0+  C450  1  0.54900000  0.34100000  0.17800000  0.5
  C0+  C451  1  0.65900000  0.32200000  0.04900000  0.5
  C0+  C452  1  0.67800000  0.45100000  0.15900000  0.5
  C0+  C453  1  0.54900000  0.32200000  0.15900000  0.5
  C0+  C454  1  0.65900000  0.45100000  0.17800000  0.5
  C0+  C455  1  0.67800000  0.34100000  0.04900000  0.5
  C0+  C456  1  0.45100000  0.65900000  0.17800000  0.5
  C0+  C457  1  0.34100000  0.67800000  0.04900000  0.5
  C0+  C458  1  0.32200000  0.54900000  0.15900000  0.5
  C0+  C459  1  0.45100000  0.67800000  0.15900000  0.5
  C0+  C460  1  0.34100000  0.54900000  0.17800000  0.5
  C0+  C461  1  0.32200000  0.65900000  0.04900000  0.5
  C0+  C462  1  0.45100000  0.34100000  0.82200000  0.5
  C0+  C463  1  0.34100000  0.32200000  0.95100000  0.5
  C0+  C464  1  0.32200000  0.45100000  0.84100000  0.5
  C0+  C465  1  0.45100000  0.32200000  0.84100000  0.5
  C0+  C466  1  0.34100000  0.45100000  0.82200000  0.5
  C0+  C467  1  0.32200000  0.34100000  0.95100000  0.5
  C0+  C468  1  0.45100000  0.34100000  0.17800000  0.5
  C0+  C469  1  0.34100000  0.32200000  0.04900000  0.5
  C0+  C470  1  0.32200000  0.45100000  0.15900000  0.5
  C0+  C471  1  0.45100000  0.32200000  0.15900000  0.5
  C0+  C472  1  0.34100000  0.45100000  0.17800000  0.5
  C0+  C473  1  0.32200000  0.34100000  0.04900000  0.5
  C0+  C474  1  0.45100000  0.65900000  0.82200000  0.5
  C0+  C475  1  0.34100000  0.67800000  0.95100000  0.5
  C0+  C476  1  0.32200000  0.54900000  0.84100000  0.5
  C0+  C477  1  0.45100000  0.67800000  0.84100000  0.5
  C0+  C478  1  0.34100000  0.54900000  0.82200000  0.5
  C0+  C479  1  0.32200000  0.65900000  0.95100000  0.5
  C0+  C480  1  0.54900000  0.34100000  0.82200000  0.5
  C0+  C481  1  0.65900000  0.32200000  0.95100000  0.5
  C0+  C482  1  0.67800000  0.45100000  0.84100000  0.5
  C0+  C483  1  0.54900000  0.32200000  0.84100000  0.5
  C0+  C484  1  0.65900000  0.45100000  0.82200000  0.5
  C0+  C485  1  0.67800000  0.34100000  0.95100000  0.5
  C0+  C486  1  0.54900000  0.65900000  0.17800000  0.5
  C0+  C487  1  0.65900000  0.67800000  0.04900000  0.5
  C0+  C488  1  0.67800000  0.54900000  0.15900000  0.5
  C0+  C489  1  0.54900000  0.67800000  0.15900000  0.5
  C0+  C490  1  0.65900000  0.54900000  0.17800000  0.5
  C0+  C491  1  0.67800000  0.65900000  0.04900000  0.5
