# generated using pymatgen
data_La2CuO4
_symmetry_space_group_name_H-M   'P 1'
_cell_length_a   5.35000000
_cell_length_b   13.14800000
_cell_length_c   5.39800000
_cell_angle_alpha   90.00000000
_cell_angle_beta   90.00000000
_cell_angle_gamma   90.00000000
_symmetry_Int_Tables_number   1
_chemical_formula_structural   La2CuO4
_chemical_formula_sum   'La8 Cu4 O16'
_cell_volume   379.70503640
_cell_formula_units_Z   4
loop_
 _symmetry_equiv_pos_site_id
 _symmetry_equiv_pos_as_xyz
  1  'x, y, z'
loop_
 _atom_type_symbol
 _atom_type_oxidation_number
  La3+  3.0
  Cu2+  2.0
  O2-  -2.0
loop_
 _atom_site_type_symbol
 _atom_site_label
 _atom_site_symmetry_multiplicity
 _atom_site_fract_x
 _atom_site_fract_y
 _atom_site_fract_z
 _atom_site_occupancy
  La3+  La0  1  0.00000000  0.13889000  0.50690000  1.0
  La3+  La1  1  0.00000000  0.86111000  0.49310000  1.0
  La3+  La2  1  0.00000000  0.36111000  0.00690000  1.0
  La3+  La3  1  0.00000000  0.63889000  0.99310000  1.0
  La3+  La4  1  0.50000000  0.63889000  0.50690000  1.0
  La3+  La5  1  0.50000000  0.36111000  0.49310000  1.0
  La3+  La6  1  0.50000000  0.86111000  0.00690000  1.0
  La3+  La7  1  0.50000000  0.13889000  0.99310000  1.0
  Cu2+  Cu8  1  0.00000000  0.50000000  0.50000000  1.0
  Cu2+  Cu9  1  0.00000000  0.00000000  0.00000000  1.0
  Cu2+  Cu10  1  0.50000000  0.00000000  0.50000000  1.0
  Cu2+  Cu11  1  0.50000000  0.50000000  0.00000000  1.0
  O2-  O12  1  0.97000000  0.31800000  0.60000000  0.024
  O2-  O13  1  0.97000000  0.68200000  0.40000000  0.024
  O2-  O14  1  0.97000000  0.18200000  0.10000000  0.024
  O2-  O15  1  0.97000000  0.81800000  0.90000000  0.024
  O2-  O16  1  0.03000000  0.68200000  0.40000000  0.024
  O2-  O17  1  0.03000000  0.31800000  0.60000000  0.024
  O2-  O18  1  0.03000000  0.81800000  0.90000000  0.024
  O2-  O19  1  0.03000000  0.18200000  0.10000000  0.024
  O2-  O20  1  0.47000000  0.81800000  0.60000000  0.024
  O2-  O21  1  0.47000000  0.18200000  0.40000000  0.024
  O2-  O22  1  0.47000000  0.68200000  0.10000000  0.024
  O2-  O23  1  0.47000000  0.31800000  0.90000000  0.024
  O2-  O24  1  0.53000000  0.18200000  0.40000000  0.024
  O2-  O25  1  0.53000000  0.81800000  0.60000000  0.024
  O2-  O26  1  0.53000000  0.31800000  0.90000000  0.024
  O2-  O27  1  0.53000000  0.68200000  0.10000000  0.024
  O2-  O28  1  0.75000000  0.25700000  0.75000000  0.016
  O2-  O29  1  0.75000000  0.74300000  0.25000000  0.016
  O2-  O30  1  0.75000000  0.24300000  0.25000000  0.016
  O2-  O31  1  0.75000000  0.75700000  0.75000000  0.016
  O2-  O32  1  0.25000000  0.74300000  0.25000000  0.016
  O2-  O33  1  0.25000000  0.25700000  0.75000000  0.016
  O2-  O34  1  0.25000000  0.75700000  0.75000000  0.016
  O2-  O35  1  0.25000000  0.24300000  0.25000000  0.016
  O2-  O36  1  0.00000000  0.31693000  0.46440000  0.943
  O2-  O37  1  0.00000000  0.68307000  0.53560000  0.943
  O2-  O38  1  0.00000000  0.18307000  0.96440000  0.943
  O2-  O39  1  0.00000000  0.81693000  0.03560000  0.943
  O2-  O40  1  0.50000000  0.81693000  0.46440000  0.943
  O2-  O41  1  0.50000000  0.18307000  0.53560000  0.943
  O2-  O42  1  0.50000000  0.68307000  0.96440000  0.943
  O2-  O43  1  0.50000000  0.31693000  0.03560000  0.943
  O2-  O44  1  0.75000000  0.50697000  0.25000000  0.993
  O2-  O45  1  0.75000000  0.49303000  0.75000000  0.993
  O2-  O46  1  0.75000000  0.99303000  0.75000000  0.993
  O2-  O47  1  0.75000000  0.00697000  0.25000000  0.993
  O2-  O48  1  0.25000000  0.49303000  0.75000000  0.993
  O2-  O49  1  0.25000000  0.50697000  0.25000000  0.993
  O2-  O50  1  0.25000000  0.00697000  0.25000000  0.993
  O2-  O51  1  0.25000000  0.99303000  0.75000000  0.993
