# generated using pymatgen
data_Ba4Tl3.5008Cd0.5008Cu2O12
_symmetry_space_group_name_H-M   'P 1'
_cell_length_a   3.85100000
_cell_length_b   3.85100000
_cell_length_c   23.31300000
_cell_angle_alpha   90.00000000
_cell_angle_beta   90.00000000
_cell_angle_gamma   90.00000000
_symmetry_Int_Tables_number   1
_chemical_formula_structural   Ba4Tl3.5008Cd0.5008Cu2O12
_chemical_formula_sum   'Ba4 Tl3.5008 Cd0.5008 Cu2 O12'
_cell_volume   345.73647591
_cell_formula_units_Z   1
loop_
 _symmetry_equiv_pos_site_id
 _symmetry_equiv_pos_as_xyz
  1  'x, y, z'
loop_
 _atom_type_symbol
 _atom_type_oxidation_number
  Ba2+  2.0
  Tl3+  3.0
  Cd2+  2.0
  Cu2.25+  2.25
  O2-  -2.0
loop_
 _atom_site_type_symbol
 _atom_site_label
 _atom_site_symmetry_multiplicity
 _atom_site_fract_x
 _atom_site_fract_y
 _atom_site_fract_z
 _atom_site_occupancy
  Ba2+  Ba0  1  0.00000000  0.00000000  0.91720000  1.0
  Ba2+  Ba1  1  0.00000000  0.00000000  0.08280000  1.0
  Ba2+  Ba2  1  0.50000000  0.50000000  0.41720000  1.0
  Ba2+  Ba3  1  0.50000000  0.50000000  0.58280000  1.0
  Tl3+  Tl4  1  0.50000000  0.55600000  0.79740000  0.2188
  Cd2+  Cd5  1  0.50000000  0.55600000  0.79740000  0.0313
  Tl3+  Tl6  1  0.50000000  0.44400000  0.79740000  0.2188
  Cd2+  Cd7  1  0.50000000  0.44400000  0.79740000  0.0313
  Tl3+  Tl8  1  0.44400000  0.50000000  0.79740000  0.2188
  Cd2+  Cd9  1  0.44400000  0.50000000  0.79740000  0.0313
  Tl3+  Tl10  1  0.55600000  0.50000000  0.79740000  0.2188
  Cd2+  Cd11  1  0.55600000  0.50000000  0.79740000  0.0313
  Tl3+  Tl12  1  0.50000000  0.44400000  0.20260000  0.2188
  Cd2+  Cd13  1  0.50000000  0.44400000  0.20260000  0.0313
  Tl3+  Tl14  1  0.50000000  0.55600000  0.20260000  0.2188
  Cd2+  Cd15  1  0.50000000  0.55600000  0.20260000  0.0313
  Tl3+  Tl16  1  0.55600000  0.50000000  0.20260000  0.2188
  Cd2+  Cd17  1  0.55600000  0.50000000  0.20260000  0.0313
  Tl3+  Tl18  1  0.44400000  0.50000000  0.20260000  0.2188
  Cd2+  Cd19  1  0.44400000  0.50000000  0.20260000  0.0313
  Tl3+  Tl20  1  0.00000000  0.05600000  0.29740000  0.2188
  Cd2+  Cd21  1  0.00000000  0.05600000  0.29740000  0.0313
  Tl3+  Tl22  1  0.00000000  0.94400000  0.29740000  0.2188
  Cd2+  Cd23  1  0.00000000  0.94400000  0.29740000  0.0313
  Tl3+  Tl24  1  0.94400000  0.00000000  0.29740000  0.2188
  Cd2+  Cd25  1  0.94400000  0.00000000  0.29740000  0.0313
  Tl3+  Tl26  1  0.05600000  0.00000000  0.29740000  0.2188
  Cd2+  Cd27  1  0.05600000  0.00000000  0.29740000  0.0313
  Tl3+  Tl28  1  0.00000000  0.94400000  0.70260000  0.2188
  Cd2+  Cd29  1  0.00000000  0.94400000  0.70260000  0.0313
  Tl3+  Tl30  1  0.00000000  0.05600000  0.70260000  0.2188
  Cd2+  Cd31  1  0.00000000  0.05600000  0.70260000  0.0313
  Tl3+  Tl32  1  0.05600000  0.00000000  0.70260000  0.2188
  Cd2+  Cd33  1  0.05600000  0.00000000  0.70260000  0.0313
  Tl3+  Tl34  1  0.94400000  0.00000000  0.70260000  0.2188
  Cd2+  Cd35  1  0.94400000  0.00000000  0.70260000  0.0313
  Cu2.25+  Cu36  1  0.50000000  0.50000000  0.00000000  1.0
  Cu2.25+  Cu37  1  0.00000000  0.00000000  0.50000000  1.0
  O2-  O38  1  0.50000000  0.00000000  0.00000000  1.0
  O2-  O39  1  0.00000000  0.50000000  0.00000000  1.0
  O2-  O40  1  0.00000000  0.50000000  0.50000000  1.0
  O2-  O41  1  0.50000000  0.00000000  0.50000000  1.0
  O2-  O42  1  0.50000000  0.50000000  0.88300000  1.0
  O2-  O43  1  0.50000000  0.50000000  0.11700000  1.0
  O2-  O44  1  0.00000000  0.00000000  0.38300000  1.0
  O2-  O45  1  0.00000000  0.00000000  0.61700000  1.0
  O2-  O46  1  0.50000000  0.42000000  0.71080000  0.25
  O2-  O47  1  0.50000000  0.58000000  0.71080000  0.25
  O2-  O48  1  0.58000000  0.50000000  0.71080000  0.25
  O2-  O49  1  0.42000000  0.50000000  0.71080000  0.25
  O2-  O50  1  0.50000000  0.58000000  0.28920000  0.25
  O2-  O51  1  0.50000000  0.42000000  0.28920000  0.25
  O2-  O52  1  0.42000000  0.50000000  0.28920000  0.25
  O2-  O53  1  0.58000000  0.50000000  0.28920000  0.25
  O2-  O54  1  0.00000000  0.92000000  0.21080000  0.25
  O2-  O55  1  0.00000000  0.08000000  0.21080000  0.25
  O2-  O56  1  0.08000000  0.00000000  0.21080000  0.25
  O2-  O57  1  0.92000000  0.00000000  0.21080000  0.25
  O2-  O58  1  0.00000000  0.08000000  0.78920000  0.25
  O2-  O59  1  0.00000000  0.92000000  0.78920000  0.25
  O2-  O60  1  0.92000000  0.00000000  0.78920000  0.25
  O2-  O61  1  0.08000000  0.00000000  0.78920000  0.25
