# generated using pymatgen
data_Ba2Y1Fe0.3Cu2.7O7.152
_symmetry_space_group_name_H-M   'P 1'
_cell_length_a   3.86550000
_cell_length_b   3.86550000
_cell_length_c   11.67400000
_cell_angle_alpha   90.00000000
_cell_angle_beta   90.00000000
_cell_angle_gamma   90.00000000
_symmetry_Int_Tables_number   1
_chemical_formula_structural   Ba2Y1Fe0.3Cu2.7O7.152
_chemical_formula_sum   'Ba2 Y1 Fe0.3 Cu2.7 O7.152'
_cell_volume   174.43396158
_cell_formula_units_Z   1
loop_
 _symmetry_equiv_pos_site_id
 _symmetry_equiv_pos_as_xyz
  1  'x, y, z'
loop_
 _atom_type_symbol
 _atom_type_oxidation_number
  Ba2+  2.0
  Y3+  3.0
  Fe3+  3.0
  Cu2.13+  2.13
  Cu3+  3.0
  O2-  -2.0
loop_
 _atom_site_type_symbol
 _atom_site_label
 _atom_site_symmetry_multiplicity
 _atom_site_fract_x
 _atom_site_fract_y
 _atom_site_fract_z
 _atom_site_occupancy
  Ba2+  Ba0  1  0.50000000  0.50000000  0.81370000  1.0
  Ba2+  Ba1  1  0.50000000  0.50000000  0.18630000  1.0
  Y3+  Y2  1  0.50000000  0.50000000  0.50000000  1.0
  Fe3+  Fe3  1  0.00000000  0.00000000  0.00000000  0.26
  Cu3+  Cu4  1  0.00000000  0.00000000  0.00000000  0.74
  Fe3+  Fe5  1  0.00000000  0.00000000  0.64350000  0.02
  Cu2.13+  Cu6  1  0.00000000  0.00000000  0.64350000  0.98
  Fe3+  Fe7  1  0.00000000  0.00000000  0.35650000  0.02
  Cu2.13+  Cu8  1  0.00000000  0.00000000  0.35650000  0.98
  O2-  O9  1  0.00000000  0.00000000  0.84240000  1.0
  O2-  O10  1  0.00000000  0.00000000  0.15760000  1.0
  O2-  O11  1  0.50000000  0.00000000  0.62190000  1.0
  O2-  O12  1  0.00000000  0.50000000  0.62190000  1.0
  O2-  O13  1  0.50000000  0.00000000  0.37810000  1.0
  O2-  O14  1  0.00000000  0.50000000  0.37810000  1.0
  O2-  O15  1  0.50000000  0.04400000  0.00000000  0.288
  O2-  O16  1  0.50000000  0.95600000  0.00000000  0.288
  O2-  O17  1  0.95600000  0.50000000  0.00000000  0.288
  O2-  O18  1  0.04400000  0.50000000  0.00000000  0.288
