# generated using pymatgen
data_Sr0.5La1.5Sm2Cu2O7.7
_symmetry_space_group_name_H-M   'P 1'
_cell_length_a   3.85880000
_cell_length_b   3.85880000
_cell_length_c   12.57250000
_cell_angle_alpha   90.00000000
_cell_angle_beta   90.00000000
_cell_angle_gamma   90.00000000
_symmetry_Int_Tables_number   1
_chemical_formula_structural   Sr0.5La1.5Sm2Cu2O7.7
_chemical_formula_sum   'Sr0.5 La1.5 Sm2 Cu2 O7.7'
_cell_volume   187.20876746
_cell_formula_units_Z   1
loop_
 _symmetry_equiv_pos_site_id
 _symmetry_equiv_pos_as_xyz
  1  'x, y, z'
loop_
 _atom_type_symbol
 _atom_type_oxidation_number
  Sr2+  2.0
  La3+  3.0
  Sm3+  3.0
  Cu2+  2.0
  O2-  -2.0
loop_
 _atom_site_type_symbol
 _atom_site_label
 _atom_site_symmetry_multiplicity
 _atom_site_fract_x
 _atom_site_fract_y
 _atom_site_fract_z
 _atom_site_occupancy
  Sr2+  Sr0  1  0.00000000  0.50000000  0.39000000  0.25
  La3+  La1  1  0.00000000  0.50000000  0.39000000  0.75
  Sr2+  Sr2  1  0.50000000  0.00000000  0.61000000  0.25
  La3+  La3  1  0.50000000  0.00000000  0.61000000  0.75
  Sm3+  Sm4  1  0.00000000  0.50000000  0.10600000  1.0
  Sm3+  Sm5  1  0.50000000  0.00000000  0.89400000  1.0
  Cu2+  Cu6  1  0.50000000  0.00000000  0.24400000  1.0
  Cu2+  Cu7  1  0.00000000  0.50000000  0.75600000  1.0
  O2-  O8  1  0.50000000  0.50000000  0.24300000  1.0
  O2-  O9  1  0.00000000  0.00000000  0.75700000  1.0
  O2-  O10  1  0.50000000  0.50000000  0.75700000  1.0
  O2-  O11  1  0.00000000  0.00000000  0.24300000  1.0
  O2-  O12  1  0.50000000  0.50000000  0.00000000  1.0
  O2-  O13  1  0.00000000  0.00000000  0.00000000  1.0
  O2-  O14  1  0.50000000  0.00000000  0.42200000  0.85
  O2-  O15  1  0.00000000  0.50000000  0.57800000  0.85
