# generated using pymatgen
data_AgSnSe2
_symmetry_space_group_name_H-M   'P 1'
_cell_length_a   5.68000000
_cell_length_b   5.68000000
_cell_length_c   5.68000000
_cell_angle_alpha   90.00000000
_cell_angle_beta   90.00000000
_cell_angle_gamma   90.00000000
_symmetry_Int_Tables_number   1
_chemical_formula_structural   AgSnSe2
_chemical_formula_sum   'Ag2 Sn2 Se4'
_cell_volume   183.25043200
_cell_formula_units_Z   2
loop_
 _symmetry_equiv_pos_site_id
 _symmetry_equiv_pos_as_xyz
  1  'x, y, z'
loop_
 _atom_type_symbol
 _atom_type_oxidation_number
  Ag0+  0.0
  Sn0+  0.0
  Se0+  0.0
loop_
 _atom_site_type_symbol
 _atom_site_label
 _atom_site_symmetry_multiplicity
 _atom_site_fract_x
 _atom_site_fract_y
 _atom_site_fract_z
 _atom_site_occupancy
  Ag0+  Ag0  1  0.00000000  0.00000000  0.00000000  0.5
  Sn0+  Sn1  1  0.00000000  0.00000000  0.00000000  0.5
  Ag0+  Ag2  1  0.00000000  0.50000000  0.50000000  0.5
  Sn0+  Sn3  1  0.00000000  0.50000000  0.50000000  0.5
  Ag0+  Ag4  1  0.50000000  0.00000000  0.50000000  0.5
  Sn0+  Sn5  1  0.50000000  0.00000000  0.50000000  0.5
  Ag0+  Ag6  1  0.50000000  0.50000000  0.00000000  0.5
  Sn0+  Sn7  1  0.50000000  0.50000000  0.00000000  0.5
  Se0+  Se8  1  0.50000000  0.50000000  0.50000000  1.0
  Se0+  Se9  1  0.50000000  0.00000000  0.00000000  1.0
  Se0+  Se10  1  0.00000000  0.50000000  0.00000000  1.0
  Se0+  Se11  1  0.00000000  0.00000000  0.50000000  1.0
