# generated using pymatgen
data_Sr4Ca4Cu6Bi3.2Pb0.8O20
_symmetry_space_group_name_H-M   'P 1'
_cell_length_a   3.82300000
_cell_length_b   3.82300000
_cell_length_c   37.07400000
_cell_angle_alpha   90.00000000
_cell_angle_beta   90.00000000
_cell_angle_gamma   90.00000000
_symmetry_Int_Tables_number   1
_chemical_formula_structural   Sr4Ca4Cu6Bi3.2Pb0.8O20
_chemical_formula_sum   'Sr4 Ca4 Cu6 Bi3.2 Pb0.8 O20'
_cell_volume   541.84870735
_cell_formula_units_Z   1
loop_
 _symmetry_equiv_pos_site_id
 _symmetry_equiv_pos_as_xyz
  1  'x, y, z'
loop_
 _atom_type_symbol
 _atom_type_oxidation_number
  Sr2+  2.0
  Ca2+  2.0
  Cu2.13+  2.13
  Bi3+  3.0
  Pb2+  2.0
  O2-  -2.0
loop_
 _atom_site_type_symbol
 _atom_site_label
 _atom_site_symmetry_multiplicity
 _atom_site_fract_x
 _atom_site_fract_y
 _atom_site_fract_z
 _atom_site_occupancy
  Sr2+  Sr0  1  0.00000000  0.00000000  0.64430000  1.0
  Sr2+  Sr1  1  0.00000000  0.00000000  0.35570000  1.0
  Sr2+  Sr2  1  0.50000000  0.50000000  0.14430000  1.0
  Sr2+  Sr3  1  0.50000000  0.50000000  0.85570000  1.0
  Ca2+  Ca4  1  0.00000000  0.00000000  0.54440000  1.0
  Ca2+  Ca5  1  0.00000000  0.00000000  0.45560000  1.0
  Ca2+  Ca6  1  0.50000000  0.50000000  0.04440000  1.0
  Ca2+  Ca7  1  0.50000000  0.50000000  0.95560000  1.0
  Cu2.13+  Cu8  1  0.00000000  0.00000000  0.00000000  1.0
  Cu2.13+  Cu9  1  0.50000000  0.50000000  0.50000000  1.0
  Cu2.13+  Cu10  1  0.00000000  0.00000000  0.90240000  1.0
  Cu2.13+  Cu11  1  0.00000000  0.00000000  0.09760000  1.0
  Cu2.13+  Cu12  1  0.50000000  0.50000000  0.40240000  1.0
  Cu2.13+  Cu13  1  0.50000000  0.50000000  0.59760000  1.0
  Bi3+  Bi14  1  0.00000000  0.00000000  0.78910000  0.8
  Pb2+  Pb15  1  0.00000000  0.00000000  0.78910000  0.2
  Bi3+  Bi16  1  0.00000000  0.00000000  0.21090000  0.8
  Pb2+  Pb17  1  0.00000000  0.00000000  0.21090000  0.2
  Bi3+  Bi18  1  0.50000000  0.50000000  0.28910000  0.8
  Pb2+  Pb19  1  0.50000000  0.50000000  0.28910000  0.2
  Bi3+  Bi20  1  0.50000000  0.50000000  0.71090000  0.8
  Pb2+  Pb21  1  0.50000000  0.50000000  0.71090000  0.2
  O2-  O22  1  0.50000000  0.00000000  0.00000000  1.0
  O2-  O23  1  0.00000000  0.50000000  0.00000000  1.0
  O2-  O24  1  0.00000000  0.50000000  0.50000000  1.0
  O2-  O25  1  0.50000000  0.00000000  0.50000000  1.0
  O2-  O26  1  0.50000000  0.00000000  0.90360000  1.0
  O2-  O27  1  0.00000000  0.50000000  0.90360000  1.0
  O2-  O28  1  0.50000000  0.00000000  0.09640000  1.0
  O2-  O29  1  0.00000000  0.50000000  0.09640000  1.0
  O2-  O30  1  0.00000000  0.50000000  0.40360000  1.0
  O2-  O31  1  0.50000000  0.00000000  0.40360000  1.0
  O2-  O32  1  0.00000000  0.50000000  0.59640000  1.0
  O2-  O33  1  0.50000000  0.00000000  0.59640000  1.0
  O2-  O34  1  0.00000000  0.00000000  0.85460000  1.0
  O2-  O35  1  0.00000000  0.00000000  0.14540000  1.0
  O2-  O36  1  0.50000000  0.50000000  0.35460000  1.0
  O2-  O37  1  0.50000000  0.50000000  0.64540000  1.0
  O2-  O38  1  0.00000000  0.00000000  0.71100000  1.0
  O2-  O39  1  0.00000000  0.00000000  0.28900000  1.0
  O2-  O40  1  0.50000000  0.50000000  0.21100000  1.0
  O2-  O41  1  0.50000000  0.50000000  0.78900000  1.0
