# generated using pymatgen
data_Sr2Ca0.5Sm0.5Tl1Cu2O6.7858
_symmetry_space_group_name_H-M   'P 1'
_cell_length_a   3.81700000
_cell_length_b   3.81700000
_cell_length_c   12.05400000
_cell_angle_alpha   90.00000000
_cell_angle_beta   90.00000000
_cell_angle_gamma   90.00000000
_symmetry_Int_Tables_number   1
_chemical_formula_structural   Sr2Ca0.5Sm0.5Tl1Cu2O6.7858
_chemical_formula_sum   'Sr2 Ca0.5 Sm0.5 Tl1 Cu2 O6.7858'
_cell_volume   175.62062041
_cell_formula_units_Z   1
loop_
 _symmetry_equiv_pos_site_id
 _symmetry_equiv_pos_as_xyz
  1  'x, y, z'
loop_
 _atom_type_symbol
 _atom_type_oxidation_number
  Sr2+  2.0
  Ca2+  2.0
  Sm3+  3.0
  Tl3+  3.0
  Cu2+  2.0
  O2-  -2.0
loop_
 _atom_site_type_symbol
 _atom_site_label
 _atom_site_symmetry_multiplicity
 _atom_site_fract_x
 _atom_site_fract_y
 _atom_site_fract_z
 _atom_site_occupancy
  Sr2+  Sr0  1  0.50000000  0.50000000  0.79000000  1.0
  Sr2+  Sr1  1  0.50000000  0.50000000  0.21000000  1.0
  Ca2+  Ca2  1  0.50000000  0.50000000  0.50000000  0.5
  Sm3+  Sm3  1  0.50000000  0.50000000  0.50000000  0.5
  Tl3+  Tl4  1  0.00000000  0.00000000  0.00000000  1.0
  Cu2+  Cu5  1  0.00000000  0.00000000  0.63500000  1.0
  Cu2+  Cu6  1  0.00000000  0.00000000  0.36500000  1.0
  O2-  O7  1  0.50000000  0.50000000  0.00000000  1.0
  O2-  O8  1  0.00000000  0.50000000  0.63500000  0.9643
  O2-  O9  1  0.50000000  0.00000000  0.63500000  0.9643
  O2-  O10  1  0.00000000  0.50000000  0.36500000  0.9643
  O2-  O11  1  0.50000000  0.00000000  0.36500000  0.9643
  O2-  O12  1  0.00000000  0.00000000  0.83500000  0.9643
  O2-  O13  1  0.00000000  0.00000000  0.16500000  0.9643
