# generated using pymatgen
data_Ba2Dy1Cu3O6.84
_symmetry_space_group_name_H-M   'P 1'
_cell_length_a   3.89310000
_cell_length_b   3.83070000
_cell_length_c   11.71600000
_cell_angle_alpha   90.00000000
_cell_angle_beta   90.00000000
_cell_angle_gamma   90.00000000
_symmetry_Int_Tables_number   1
_chemical_formula_structural   Ba2Dy1Cu3O6.84
_chemical_formula_sum   'Ba2 Dy1 Cu3 O6.84'
_cell_volume   174.72420136
_cell_formula_units_Z   1
loop_
 _symmetry_equiv_pos_site_id
 _symmetry_equiv_pos_as_xyz
  1  'x, y, z'
loop_
 _atom_type_symbol
 _atom_type_oxidation_number
  Ba2+  2.0
  Dy3+  3.0
  Cu2.23+  2.23
  O2-  -2.0
loop_
 _atom_site_type_symbol
 _atom_site_label
 _atom_site_symmetry_multiplicity
 _atom_site_fract_x
 _atom_site_fract_y
 _atom_site_fract_z
 _atom_site_occupancy
  Ba2+  Ba0  1  0.50000000  0.50000000  0.18470000  1.0
  Ba2+  Ba1  1  0.50000000  0.50000000  0.81530000  1.0
  Dy3+  Dy2  1  0.50000000  0.50000000  0.50000000  1.0
  Cu2.23+  Cu3  1  0.00000000  0.00000000  0.00000000  1.0
  Cu2.23+  Cu4  1  0.00000000  0.00000000  0.35540000  1.0
  Cu2.23+  Cu5  1  0.00000000  0.00000000  0.64460000  1.0
  O2-  O6  1  0.00000000  0.00000000  0.15960000  1.0
  O2-  O7  1  0.00000000  0.00000000  0.84040000  1.0
  O2-  O8  1  0.00000000  0.50000000  0.00000000  0.08
  O2-  O9  1  0.50000000  0.00000000  0.00000000  0.84
  O2-  O10  1  0.50000000  0.00000000  0.38100000  0.97
  O2-  O11  1  0.50000000  0.00000000  0.61900000  0.97
  O2-  O12  1  0.00000000  0.50000000  0.37670000  0.99
  O2-  O13  1  0.00000000  0.50000000  0.62330000  0.99
