# generated using pymatgen
data_Lu8.04Sc1.96Si20Ir8
_symmetry_space_group_name_H-M   'P 1'
_cell_length_a   12.32220000
_cell_length_b   12.32220000
_cell_length_c   4.09330000
_cell_angle_alpha   90.00000000
_cell_angle_beta   90.00000000
_cell_angle_gamma   90.00000000
_symmetry_Int_Tables_number   1
_chemical_formula_structural   Lu8.04Sc1.96Si20Ir8
_chemical_formula_sum   'Lu8.04 Sc1.96 Si20 Ir8'
_cell_volume   621.51280734
_cell_formula_units_Z   1
loop_
 _symmetry_equiv_pos_site_id
 _symmetry_equiv_pos_as_xyz
  1  'x, y, z'
loop_
 _atom_type_symbol
 _atom_type_oxidation_number
  Lu0+  0.0
  Sc0+  0.0
  Si0+  0.0
  Ir0+  0.0
loop_
 _atom_site_type_symbol
 _atom_site_label
 _atom_site_symmetry_multiplicity
 _atom_site_fract_x
 _atom_site_fract_y
 _atom_site_fract_z
 _atom_site_occupancy
  Lu0+  Lu0  1  0.38440000  0.88440000  0.50000000  0.96
  Sc0+  Sc1  1  0.38440000  0.88440000  0.50000000  0.04
  Lu0+  Lu2  1  0.61560000  0.11560000  0.50000000  0.96
  Sc0+  Sc3  1  0.61560000  0.11560000  0.50000000  0.04
  Lu0+  Lu4  1  0.11560000  0.38440000  0.50000000  0.96
  Sc0+  Sc5  1  0.11560000  0.38440000  0.50000000  0.04
  Lu0+  Lu6  1  0.88440000  0.61560000  0.50000000  0.96
  Sc0+  Sc7  1  0.88440000  0.61560000  0.50000000  0.04
  Lu0+  Lu8  1  0.50000000  0.50000000  0.00000000  0.84
  Sc0+  Sc9  1  0.50000000  0.50000000  0.00000000  0.16
  Lu0+  Lu10  1  0.00000000  0.00000000  0.00000000  0.84
  Sc0+  Sc11  1  0.00000000  0.00000000  0.00000000  0.16
  Lu0+  Lu12  1  0.17440000  0.67440000  0.50000000  0.63
  Sc0+  Sc13  1  0.17440000  0.67440000  0.50000000  0.37
  Lu0+  Lu14  1  0.82560000  0.32560000  0.50000000  0.63
  Sc0+  Sc15  1  0.82560000  0.32560000  0.50000000  0.37
  Lu0+  Lu16  1  0.32560000  0.17440000  0.50000000  0.63
  Sc0+  Sc17  1  0.32560000  0.17440000  0.50000000  0.37
  Lu0+  Lu18  1  0.67440000  0.82560000  0.50000000  0.63
  Sc0+  Sc19  1  0.67440000  0.82560000  0.50000000  0.37
  Si0+  Si20  1  0.06670000  0.56670000  0.00000000  1.0
  Si0+  Si21  1  0.93330000  0.43330000  0.00000000  1.0
  Si0+  Si22  1  0.43330000  0.06670000  0.00000000  1.0
  Si0+  Si23  1  0.56670000  0.93330000  0.00000000  1.0
  Si0+  Si24  1  0.69760000  0.66360000  0.00000000  1.0
  Si0+  Si25  1  0.30240000  0.33640000  0.00000000  1.0
  Si0+  Si26  1  0.80240000  0.16360000  0.00000000  1.0
  Si0+  Si27  1  0.19760000  0.83640000  0.00000000  1.0
  Si0+  Si28  1  0.66360000  0.30240000  0.00000000  1.0
  Si0+  Si29  1  0.33640000  0.69760000  0.00000000  1.0
  Si0+  Si30  1  0.16360000  0.19760000  0.00000000  1.0
  Si0+  Si31  1  0.83640000  0.80240000  0.00000000  1.0
  Si0+  Si32  1  0.50460000  0.65920000  0.50000000  1.0
  Si0+  Si33  1  0.49540000  0.34080000  0.50000000  1.0
  Si0+  Si34  1  0.99540000  0.15920000  0.50000000  1.0
  Si0+  Si35  1  0.00460000  0.84080000  0.50000000  1.0
  Si0+  Si36  1  0.65920000  0.49540000  0.50000000  1.0
  Si0+  Si37  1  0.34080000  0.50460000  0.50000000  1.0
  Si0+  Si38  1  0.15920000  0.00460000  0.50000000  1.0
  Si0+  Si39  1  0.84080000  0.99540000  0.50000000  1.0
  Ir0+  Ir40  1  0.01860000  0.75450000  0.00000000  1.0
  Ir0+  Ir41  1  0.98140000  0.24550000  0.00000000  1.0
  Ir0+  Ir42  1  0.48140000  0.25450000  0.00000000  1.0
  Ir0+  Ir43  1  0.51860000  0.74550000  0.00000000  1.0
  Ir0+  Ir44  1  0.75450000  0.98140000  0.00000000  1.0
  Ir0+  Ir45  1  0.24550000  0.01860000  0.00000000  1.0
  Ir0+  Ir46  1  0.25450000  0.51860000  0.00000000  1.0
  Ir0+  Ir47  1  0.74550000  0.48140000  0.00000000  1.0
