# generated using pymatgen
data_Ba3.6Sr0.4Y2Cu8O16
_symmetry_space_group_name_H-M   'P 1'
_cell_length_a   3.82500000
_cell_length_b   3.86300000
_cell_length_c   27.11000000
_cell_angle_alpha   90.00000000
_cell_angle_beta   90.00000000
_cell_angle_gamma   90.00000000
_symmetry_Int_Tables_number   1
_chemical_formula_structural   Ba3.6Sr0.4Y2Cu8O16
_chemical_formula_sum   'Ba3.6 Sr0.4 Y2 Cu8 O16'
_cell_volume   400.57668225
_cell_formula_units_Z   1
loop_
 _symmetry_equiv_pos_site_id
 _symmetry_equiv_pos_as_xyz
  1  'x, y, z'
loop_
 _atom_type_symbol
 _atom_type_oxidation_number
  Ba2+  2.0
  Sr2+  2.0
  Y3+  3.0
  Cu2.25+  2.25
  O2-  -2.0
loop_
 _atom_site_type_symbol
 _atom_site_label
 _atom_site_symmetry_multiplicity
 _atom_site_fract_x
 _atom_site_fract_y
 _atom_site_fract_z
 _atom_site_occupancy
  Ba2+  Ba0  1  0.50000000  0.50000000  0.13650000  0.9
  Sr2+  Sr1  1  0.50000000  0.50000000  0.13650000  0.1
  Ba2+  Ba2  1  0.50000000  0.50000000  0.86350000  0.9
  Sr2+  Sr3  1  0.50000000  0.50000000  0.86350000  0.1
  Ba2+  Ba4  1  0.50000000  0.00000000  0.63650000  0.9
  Sr2+  Sr5  1  0.50000000  0.00000000  0.63650000  0.1
  Ba2+  Ba6  1  0.50000000  0.00000000  0.36350000  0.9
  Sr2+  Sr7  1  0.50000000  0.00000000  0.36350000  0.1
  Y3+  Y8  1  0.50000000  0.50000000  0.00000000  1.0
  Y3+  Y9  1  0.50000000  0.00000000  0.50000000  1.0
  Cu2.25+  Cu10  1  0.00000000  0.00000000  0.21330000  1.0
  Cu2.25+  Cu11  1  0.00000000  0.00000000  0.78670000  1.0
  Cu2.25+  Cu12  1  0.00000000  0.50000000  0.71330000  1.0
  Cu2.25+  Cu13  1  0.00000000  0.50000000  0.28670000  1.0
  Cu2.25+  Cu14  1  0.00000000  0.00000000  0.06180000  1.0
  Cu2.25+  Cu15  1  0.00000000  0.00000000  0.93820000  1.0
  Cu2.25+  Cu16  1  0.00000000  0.50000000  0.56180000  1.0
  Cu2.25+  Cu17  1  0.00000000  0.50000000  0.43820000  1.0
  O2-  O18  1  0.00000000  0.00000000  0.14380000  1.0
  O2-  O19  1  0.00000000  0.00000000  0.85620000  1.0
  O2-  O20  1  0.00000000  0.50000000  0.64380000  1.0
  O2-  O21  1  0.00000000  0.50000000  0.35620000  1.0
  O2-  O22  1  0.50000000  0.00000000  0.05310000  1.0
  O2-  O23  1  0.50000000  0.00000000  0.94690000  1.0
  O2-  O24  1  0.50000000  0.50000000  0.55310000  1.0
  O2-  O25  1  0.50000000  0.50000000  0.44690000  1.0
  O2-  O26  1  0.00000000  0.50000000  0.05430000  1.0
  O2-  O27  1  0.00000000  0.50000000  0.94570000  1.0
  O2-  O28  1  0.00000000  0.00000000  0.55430000  1.0
  O2-  O29  1  0.00000000  0.00000000  0.44570000  1.0
  O2-  O30  1  0.00000000  0.50000000  0.21850000  1.0
  O2-  O31  1  0.00000000  0.50000000  0.78150000  1.0
  O2-  O32  1  0.00000000  0.00000000  0.71850000  1.0
  O2-  O33  1  0.00000000  0.00000000  0.28150000  1.0
