# generated using pymatgen
data_Ba4Tl4Cu2O12.112
_symmetry_space_group_name_H-M   'P 1'
_cell_length_a   3.86700000
_cell_length_b   3.86700000
_cell_length_c   23.20999000
_cell_angle_alpha   90.00000000
_cell_angle_beta   90.00000000
_cell_angle_gamma   90.00000000
_symmetry_Int_Tables_number   1
_chemical_formula_structural   Ba4Tl4Cu2O12.112
_chemical_formula_sum   'Ba4 Tl4 Cu2 O12.112'
_cell_volume   347.07497215
_cell_formula_units_Z   1
loop_
 _symmetry_equiv_pos_site_id
 _symmetry_equiv_pos_as_xyz
  1  'x, y, z'
loop_
 _atom_type_symbol
 _atom_type_oxidation_number
  Ba2+  2.0
  Tl3+  3.0
  Cu2.11+  2.11
  O2-  -2.0
loop_
 _atom_site_type_symbol
 _atom_site_label
 _atom_site_symmetry_multiplicity
 _atom_site_fract_x
 _atom_site_fract_y
 _atom_site_fract_z
 _atom_site_occupancy
  Ba2+  Ba0  1  0.00000000  0.00000000  0.91660000  1.0
  Ba2+  Ba1  1  0.00000000  0.00000000  0.08340000  1.0
  Ba2+  Ba2  1  0.50000000  0.50000000  0.41660000  1.0
  Ba2+  Ba3  1  0.50000000  0.50000000  0.58340000  1.0
  Tl3+  Tl4  1  0.00000000  0.00000000  0.70282000  1.0
  Tl3+  Tl5  1  0.00000000  0.00000000  0.29718000  1.0
  Tl3+  Tl6  1  0.50000000  0.50000000  0.20282000  1.0
  Tl3+  Tl7  1  0.50000000  0.50000000  0.79718000  1.0
  Cu2.11+  Cu8  1  0.00000000  0.00000000  0.50000000  1.0
  Cu2.11+  Cu9  1  0.50000000  0.50000000  0.00000000  1.0
  O2-  O10  1  0.50000000  0.00000000  0.00000000  1.0
  O2-  O11  1  0.00000000  0.50000000  0.00000000  1.0
  O2-  O12  1  0.00000000  0.50000000  0.50000000  1.0
  O2-  O13  1  0.50000000  0.00000000  0.50000000  1.0
  O2-  O14  1  0.00000000  0.00000000  0.61570000  1.0
  O2-  O15  1  0.00000000  0.00000000  0.38430000  1.0
  O2-  O16  1  0.50000000  0.50000000  0.11570000  1.0
  O2-  O17  1  0.50000000  0.50000000  0.88430000  1.0
  O2-  O18  1  0.50000000  0.00000000  0.75000000  0.028
  O2-  O19  1  0.00000000  0.50000000  0.75000000  0.028
  O2-  O20  1  0.50000000  0.00000000  0.25000000  0.028
  O2-  O21  1  0.00000000  0.50000000  0.25000000  0.028
  O2-  O22  1  0.10400000  0.00000000  0.79030000  0.25
  O2-  O23  1  0.89600000  0.00000000  0.79030000  0.25
  O2-  O24  1  0.00000000  0.10400000  0.79030000  0.25
  O2-  O25  1  0.00000000  0.89600000  0.79030000  0.25
  O2-  O26  1  0.89600000  0.00000000  0.20970000  0.25
  O2-  O27  1  0.10400000  0.00000000  0.20970000  0.25
  O2-  O28  1  0.00000000  0.89600000  0.20970000  0.25
  O2-  O29  1  0.00000000  0.10400000  0.20970000  0.25
  O2-  O30  1  0.60400000  0.50000000  0.29030000  0.25
  O2-  O31  1  0.39600000  0.50000000  0.29030000  0.25
  O2-  O32  1  0.50000000  0.60400000  0.29030000  0.25
  O2-  O33  1  0.50000000  0.39600000  0.29030000  0.25
  O2-  O34  1  0.39600000  0.50000000  0.70970000  0.25
  O2-  O35  1  0.60400000  0.50000000  0.70970000  0.25
  O2-  O36  1  0.50000000  0.39600000  0.70970000  0.25
  O2-  O37  1  0.50000000  0.60400000  0.70970000  0.25
