# generated using pymatgen
data_Ba4Bi1.4Pb2.6O12
_symmetry_space_group_name_H-M   'P 1'
_cell_length_a   6.10050000
_cell_length_b   6.07790000
_cell_length_c   8.57270000
_cell_angle_alpha   90.00000000
_cell_angle_beta   90.00000000
_cell_angle_gamma   90.00000000
_symmetry_Int_Tables_number   1
_chemical_formula_structural   Ba4Bi1.4Pb2.6O12
_chemical_formula_sum   'Ba4 Bi1.4 Pb2.6 O12'
_cell_volume   317.86053332
_cell_formula_units_Z   1
loop_
 _symmetry_equiv_pos_site_id
 _symmetry_equiv_pos_as_xyz
  1  'x, y, z'
loop_
 _atom_type_symbol
 _atom_type_oxidation_number
  Ba2+  2.0
  Bi4+  4.0
  Pb4+  4.0
  O2-  -2.0
loop_
 _atom_site_type_symbol
 _atom_site_label
 _atom_site_symmetry_multiplicity
 _atom_site_fract_x
 _atom_site_fract_y
 _atom_site_fract_z
 _atom_site_occupancy
  Ba2+  Ba0  1  0.49900000  0.00000000  0.75000000  1.0
  Ba2+  Ba1  1  0.50100000  0.00000000  0.25000000  1.0
  Ba2+  Ba2  1  0.99900000  0.50000000  0.25000000  1.0
  Ba2+  Ba3  1  0.00100000  0.50000000  0.75000000  1.0
  Bi4+  Bi4  1  0.00000000  0.00000000  0.50000000  0.35
  Pb4+  Pb5  1  0.00000000  0.00000000  0.50000000  0.65
  Bi4+  Bi6  1  0.00000000  0.00000000  0.00000000  0.35
  Pb4+  Pb7  1  0.00000000  0.00000000  0.00000000  0.65
  Bi4+  Bi8  1  0.50000000  0.50000000  0.00000000  0.35
  Pb4+  Pb9  1  0.50000000  0.50000000  0.00000000  0.65
  Bi4+  Bi10  1  0.50000000  0.50000000  0.50000000  0.35
  Pb4+  Pb11  1  0.50000000  0.50000000  0.50000000  0.65
  O2-  O12  1  0.95430000  0.00000000  0.75000000  1.0
  O2-  O13  1  0.04570000  0.00000000  0.25000000  1.0
  O2-  O14  1  0.45430000  0.50000000  0.25000000  1.0
  O2-  O15  1  0.54570000  0.50000000  0.75000000  1.0
  O2-  O16  1  0.75000000  0.75000000  0.47580000  1.0
  O2-  O17  1  0.25000000  0.75000000  0.52420000  1.0
  O2-  O18  1  0.25000000  0.75000000  0.97580000  1.0
  O2-  O19  1  0.75000000  0.75000000  0.02420000  1.0
  O2-  O20  1  0.25000000  0.25000000  0.52420000  1.0
  O2-  O21  1  0.75000000  0.25000000  0.47580000  1.0
  O2-  O22  1  0.75000000  0.25000000  0.02420000  1.0
  O2-  O23  1  0.25000000  0.25000000  0.97580000  1.0
