# generated using pymatgen
data_Sr0.4Ca2La3.6Cu4O11.924
_symmetry_space_group_name_H-M   'P 1'
_cell_length_a   3.82220000
_cell_length_b   3.82220000
_cell_length_c   19.53240000
_cell_angle_alpha   90.00000000
_cell_angle_beta   90.00000000
_cell_angle_gamma   90.00000000
_symmetry_Int_Tables_number   1
_chemical_formula_structural   Sr0.4Ca2La3.6Cu4O11.924
_chemical_formula_sum   'Sr0.4 Ca2 La3.6 Cu4 O11.924'
_cell_volume   285.35298888
_cell_formula_units_Z   1
loop_
 _symmetry_equiv_pos_site_id
 _symmetry_equiv_pos_as_xyz
  1  'x, y, z'
loop_
 _atom_type_symbol
 _atom_type_oxidation_number
  Sr2+  2.0
  Ca2+  2.0
  La3+  3.0
  Cu2.061+  2.061
  O2-  -2.0
loop_
 _atom_site_type_symbol
 _atom_site_label
 _atom_site_symmetry_multiplicity
 _atom_site_fract_x
 _atom_site_fract_y
 _atom_site_fract_z
 _atom_site_occupancy
  Sr2+  Sr0  1  0.00000000  0.00000000  0.00000000  0.11
  Ca2+  Ca1  1  0.00000000  0.00000000  0.00000000  0.86
  La3+  La2  1  0.00000000  0.00000000  0.00000000  0.03
  Sr2+  Sr3  1  0.50000000  0.50000000  0.50000000  0.11
  Ca2+  Ca4  1  0.50000000  0.50000000  0.50000000  0.86
  La3+  La5  1  0.50000000  0.50000000  0.50000000  0.03
  Sr2+  Sr6  1  0.00000000  0.00000000  0.82380000  0.045
  Ca2+  Ca7  1  0.00000000  0.00000000  0.82380000  0.07
  La3+  La8  1  0.00000000  0.00000000  0.82380000  0.885
  Sr2+  Sr9  1  0.00000000  0.00000000  0.17620000  0.045
  Ca2+  Ca10  1  0.00000000  0.00000000  0.17620000  0.07
  La3+  La11  1  0.00000000  0.00000000  0.17620000  0.885
  Sr2+  Sr12  1  0.50000000  0.50000000  0.32380000  0.045
  Ca2+  Ca13  1  0.50000000  0.50000000  0.32380000  0.07
  La3+  La14  1  0.50000000  0.50000000  0.32380000  0.885
  Sr2+  Sr15  1  0.50000000  0.50000000  0.67620000  0.045
  Ca2+  Ca16  1  0.50000000  0.50000000  0.67620000  0.07
  La3+  La17  1  0.50000000  0.50000000  0.67620000  0.885
  Cu2.061+  Cu18  1  0.00000000  0.00000000  0.41476000  1.0
  Cu2.061+  Cu19  1  0.00000000  0.00000000  0.58524000  1.0
  Cu2.061+  Cu20  1  0.50000000  0.50000000  0.91476000  1.0
  Cu2.061+  Cu21  1  0.50000000  0.50000000  0.08524000  1.0
  O2-  O22  1  0.00000000  0.00000000  0.29610000  1.0
  O2-  O23  1  0.00000000  0.00000000  0.70390000  1.0
  O2-  O24  1  0.50000000  0.50000000  0.79610000  1.0
  O2-  O25  1  0.50000000  0.50000000  0.20390000  1.0
  O2-  O26  1  0.00000000  0.00000000  0.50000000  0.01
  O2-  O27  1  0.50000000  0.50000000  0.00000000  0.01
  O2-  O28  1  0.50000000  0.00000000  0.91785000  0.988
  O2-  O29  1  0.00000000  0.50000000  0.91785000  0.988
  O2-  O30  1  0.50000000  0.00000000  0.08215000  0.988
  O2-  O31  1  0.00000000  0.50000000  0.08215000  0.988
  O2-  O32  1  0.00000000  0.50000000  0.41785000  0.988
  O2-  O33  1  0.50000000  0.00000000  0.41785000  0.988
  O2-  O34  1  0.00000000  0.50000000  0.58215000  0.988
  O2-  O35  1  0.50000000  0.00000000  0.58215000  0.988
