# generated using pymatgen
data_Ba1.55Ca0.2La1.25Cu3O6.994
_symmetry_space_group_name_H-M   'P 1'
_cell_length_a   3.89400000
_cell_length_b   3.89400000
_cell_length_c   11.68500000
_cell_angle_alpha   90.00000000
_cell_angle_beta   90.00000000
_cell_angle_gamma   90.00000000
_symmetry_Int_Tables_number   1
_chemical_formula_structural   Ba1.55Ca0.2La1.25Cu3O6.994
_chemical_formula_sum   'Ba1.55 Ca0.2 La1.25 Cu3 O6.994'
_cell_volume   177.18241266
_cell_formula_units_Z   1
loop_
 _symmetry_equiv_pos_site_id
 _symmetry_equiv_pos_as_xyz
  1  'x, y, z'
loop_
 _atom_type_symbol
 _atom_type_oxidation_number
  Ba2+  2.0
  Ca2+  2.0
  La3+  3.0
  Cu2.243+  2.243
  O2-  -2.0
loop_
 _atom_site_type_symbol
 _atom_site_label
 _atom_site_symmetry_multiplicity
 _atom_site_fract_x
 _atom_site_fract_y
 _atom_site_fract_z
 _atom_site_occupancy
  Ba2+  Ba0  1  0.50000000  0.50000000  0.81520000  0.775
  La3+  La1  1  0.50000000  0.50000000  0.81520000  0.225
  Ba2+  Ba2  1  0.50000000  0.50000000  0.18480000  0.775
  La3+  La3  1  0.50000000  0.50000000  0.18480000  0.225
  Ca2+  Ca4  1  0.50000000  0.50000000  0.50000000  0.2
  La3+  La5  1  0.50000000  0.50000000  0.50000000  0.8
  Cu2.243+  Cu6  1  0.00000000  0.00000000  0.00000000  1.0
  Cu2.243+  Cu7  1  0.00000000  0.00000000  0.65220000  1.0
  Cu2.243+  Cu8  1  0.00000000  0.00000000  0.34780000  1.0
  O2-  O9  1  0.50000000  0.00000000  0.62820000  1.0
  O2-  O10  1  0.00000000  0.50000000  0.62820000  1.0
  O2-  O11  1  0.50000000  0.00000000  0.37180000  1.0
  O2-  O12  1  0.00000000  0.50000000  0.37180000  1.0
  O2-  O13  1  0.00000000  0.00000000  0.84100000  1.0
  O2-  O14  1  0.00000000  0.00000000  0.15900000  1.0
  O2-  O15  1  0.50000000  0.00000000  0.00000000  0.497
  O2-  O16  1  0.00000000  0.50000000  0.00000000  0.497
