# generated using pymatgen
data_Ba1.7Nd1.3Cu3O7
_symmetry_space_group_name_H-M   'P 1'
_cell_length_a   3.88510000
_cell_length_b   3.88510000
_cell_length_c   11.67430000
_cell_angle_alpha   90.00000000
_cell_angle_beta   90.00000000
_cell_angle_gamma   90.00000000
_symmetry_Int_Tables_number   1
_chemical_formula_structural   Ba1.7Nd1.3Cu3O7
_chemical_formula_sum   'Ba1.7 Nd1.3 Cu3 O7'
_cell_volume   176.21190767
_cell_formula_units_Z   1
loop_
 _symmetry_equiv_pos_site_id
 _symmetry_equiv_pos_as_xyz
  1  'x, y, z'
loop_
 _atom_type_symbol
 _atom_type_oxidation_number
  Ba2+  2.0
  Nd3+  3.0
  Cu2.23+  2.23
  O2-  -2.0
loop_
 _atom_site_type_symbol
 _atom_site_label
 _atom_site_symmetry_multiplicity
 _atom_site_fract_x
 _atom_site_fract_y
 _atom_site_fract_z
 _atom_site_occupancy
  Ba2+  Ba0  1  0.50000000  0.50000000  0.81660000  0.85
  Nd3+  Nd1  1  0.50000000  0.50000000  0.81660000  0.15
  Ba2+  Ba2  1  0.50000000  0.50000000  0.18340000  0.85
  Nd3+  Nd3  1  0.50000000  0.50000000  0.18340000  0.15
  Nd3+  Nd4  1  0.50000000  0.50000000  0.50000000  1.0
  Cu2.23+  Cu5  1  0.00000000  0.00000000  0.00000000  1.0
  Cu2.23+  Cu6  1  0.00000000  0.00000000  0.64800000  1.0
  Cu2.23+  Cu7  1  0.00000000  0.00000000  0.35200000  1.0
  O2-  O8  1  0.50000000  0.00000000  0.62300000  1.0
  O2-  O9  1  0.00000000  0.50000000  0.62300000  1.0
  O2-  O10  1  0.50000000  0.00000000  0.37700000  1.0
  O2-  O11  1  0.00000000  0.50000000  0.37700000  1.0
  O2-  O12  1  0.50000000  0.00000000  0.00000000  0.56
  O2-  O13  1  0.00000000  0.50000000  0.00000000  0.56
  O2-  O14  1  0.00000000  0.00000000  0.83600000  0.94
  O2-  O15  1  0.00000000  0.00000000  0.16400000  0.94
