# generated using pymatgen
data_Ca0.4La3.6Cu2O8
_symmetry_space_group_name_H-M   'P 1'
_cell_length_a   3.80130000
_cell_length_b   3.80130000
_cell_length_c   13.23250000
_cell_angle_alpha   90.00000000
_cell_angle_beta   90.00000000
_cell_angle_gamma   90.00000000
_symmetry_Int_Tables_number   1
_chemical_formula_structural   Ca0.4La3.6Cu2O8
_chemical_formula_sum   'Ca0.4 La3.6 Cu2 O8'
_cell_volume   191.20805946
_cell_formula_units_Z   1
loop_
 _symmetry_equiv_pos_site_id
 _symmetry_equiv_pos_as_xyz
  1  'x, y, z'
loop_
 _atom_type_symbol
 _atom_type_oxidation_number
  Ca2+  2.0
  La3+  3.0
  Cu2.2+  2.2
  O2-  -2.0
loop_
 _atom_site_type_symbol
 _atom_site_label
 _atom_site_symmetry_multiplicity
 _atom_site_fract_x
 _atom_site_fract_y
 _atom_site_fract_z
 _atom_site_occupancy
  Ca2+  Ca0  1  0.00000000  0.00000000  0.64050000  0.1
  La3+  La1  1  0.00000000  0.00000000  0.64050000  0.9
  Ca2+  Ca2  1  0.00000000  0.00000000  0.35950000  0.1
  La3+  La3  1  0.00000000  0.00000000  0.35950000  0.9
  Ca2+  Ca4  1  0.50000000  0.50000000  0.14050000  0.1
  La3+  La5  1  0.50000000  0.50000000  0.14050000  0.9
  Ca2+  Ca6  1  0.50000000  0.50000000  0.85950000  0.1
  La3+  La7  1  0.50000000  0.50000000  0.85950000  0.9
  Cu2.2+  Cu8  1  0.00000000  0.00000000  0.00000000  1.0
  Cu2.2+  Cu9  1  0.50000000  0.50000000  0.50000000  1.0
  O2-  O10  1  0.50000000  0.00000000  0.00000000  1.0
  O2-  O11  1  0.00000000  0.50000000  0.00000000  1.0
  O2-  O12  1  0.00000000  0.50000000  0.50000000  1.0
  O2-  O13  1  0.50000000  0.00000000  0.50000000  1.0
  O2-  O14  1  0.00000000  0.00000000  0.81690000  1.0
  O2-  O15  1  0.00000000  0.00000000  0.18310000  1.0
  O2-  O16  1  0.50000000  0.50000000  0.31690000  1.0
  O2-  O17  1  0.50000000  0.50000000  0.68310000  1.0
