# generated using pymatgen
data_Ba8Y4Cu14O30.06
_symmetry_space_group_name_H-M   'P 1'
_cell_length_a   3.84020000
_cell_length_b   3.87670000
_cell_length_c   50.39900000
_cell_angle_alpha   90.00000000
_cell_angle_beta   90.00000000
_cell_angle_gamma   90.00000000
_symmetry_Int_Tables_number   1
_chemical_formula_structural   Ba8Y4Cu14O30.06
_chemical_formula_sum   'Ba8 Y4 Cu14 O30.06'
_cell_volume   750.30520103
_cell_formula_units_Z   1
loop_
 _symmetry_equiv_pos_site_id
 _symmetry_equiv_pos_as_xyz
  1  'x, y, z'
loop_
 _atom_type_symbol
 _atom_type_oxidation_number
  Ba2+  2.0
  Y3+  3.0
  Cu2.294+  2.294
  O2-  -2.0
loop_
 _atom_site_type_symbol
 _atom_site_label
 _atom_site_symmetry_multiplicity
 _atom_site_fract_x
 _atom_site_fract_y
 _atom_site_fract_z
 _atom_site_occupancy
  Ba2+  Ba0  1  0.50000000  0.50000000  0.04300000  1.0
  Ba2+  Ba1  1  0.50000000  0.50000000  0.95700000  1.0
  Ba2+  Ba2  1  0.50000000  0.00000000  0.54300000  1.0
  Ba2+  Ba3  1  0.50000000  0.00000000  0.45700000  1.0
  Ba2+  Ba4  1  0.50000000  0.50000000  0.18890000  1.0
  Ba2+  Ba5  1  0.50000000  0.50000000  0.81110000  1.0
  Ba2+  Ba6  1  0.50000000  0.00000000  0.68890000  1.0
  Ba2+  Ba7  1  0.50000000  0.00000000  0.31110000  1.0
  Y3+  Y8  1  0.50000000  0.50000000  0.11420000  1.0
  Y3+  Y9  1  0.50000000  0.50000000  0.88580000  1.0
  Y3+  Y10  1  0.50000000  0.00000000  0.61420000  1.0
  Y3+  Y11  1  0.50000000  0.00000000  0.38580000  1.0
  Cu2.294+  Cu12  1  0.00000000  0.00000000  0.00000000  1.0
  Cu2.294+  Cu13  1  0.00000000  0.50000000  0.50000000  1.0
  Cu2.294+  Cu14  1  0.00000000  0.00000000  0.08170000  1.0
  Cu2.294+  Cu15  1  0.00000000  0.00000000  0.91830000  1.0
  Cu2.294+  Cu16  1  0.00000000  0.50000000  0.58170000  1.0
  Cu2.294+  Cu17  1  0.00000000  0.50000000  0.41830000  1.0
  Cu2.294+  Cu18  1  0.00000000  0.00000000  0.14890000  1.0
  Cu2.294+  Cu19  1  0.00000000  0.00000000  0.85110000  1.0
  Cu2.294+  Cu20  1  0.00000000  0.50000000  0.64890000  1.0
  Cu2.294+  Cu21  1  0.00000000  0.50000000  0.35110000  1.0
  Cu2.294+  Cu22  1  0.00000000  0.00000000  0.23040000  1.0
  Cu2.294+  Cu23  1  0.00000000  0.00000000  0.76960000  1.0
  Cu2.294+  Cu24  1  0.00000000  0.50000000  0.73040000  1.0
  Cu2.294+  Cu25  1  0.00000000  0.50000000  0.26960000  1.0
  O2-  O26  1  0.00000000  0.00000000  0.03510000  1.0
  O2-  O27  1  0.00000000  0.00000000  0.96490000  1.0
  O2-  O28  1  0.00000000  0.50000000  0.53510000  1.0
  O2-  O29  1  0.00000000  0.50000000  0.46490000  1.0
  O2-  O30  1  0.50000000  0.00000000  0.08730000  1.0
  O2-  O31  1  0.50000000  0.00000000  0.91270000  1.0
  O2-  O32  1  0.50000000  0.50000000  0.58730000  1.0
  O2-  O33  1  0.50000000  0.50000000  0.41270000  1.0
  O2-  O34  1  0.00000000  0.50000000  0.08590000  1.0
  O2-  O35  1  0.00000000  0.50000000  0.91410000  1.0
  O2-  O36  1  0.00000000  0.00000000  0.58590000  1.0
  O2-  O37  1  0.00000000  0.00000000  0.41410000  1.0
  O2-  O38  1  0.50000000  0.00000000  0.14520000  1.0
  O2-  O39  1  0.50000000  0.00000000  0.85480000  1.0
  O2-  O40  1  0.50000000  0.50000000  0.64520000  1.0
  O2-  O41  1  0.50000000  0.50000000  0.35480000  1.0
  O2-  O42  1  0.00000000  0.50000000  0.14270000  1.0
  O2-  O43  1  0.00000000  0.50000000  0.85730000  1.0
  O2-  O44  1  0.00000000  0.00000000  0.64270000  1.0
  O2-  O45  1  0.00000000  0.00000000  0.35730000  1.0
  O2-  O46  1  0.00000000  0.00000000  0.19360000  1.0
  O2-  O47  1  0.00000000  0.00000000  0.80640000  1.0
  O2-  O48  1  0.00000000  0.50000000  0.69360000  1.0
  O2-  O49  1  0.00000000  0.50000000  0.30640000  1.0
  O2-  O50  1  0.00000000  0.50000000  0.23250000  1.0
  O2-  O51  1  0.00000000  0.50000000  0.76750000  1.0
  O2-  O52  1  0.00000000  0.00000000  0.73250000  1.0
  O2-  O53  1  0.00000000  0.00000000  0.26750000  1.0
  O2-  O54  1  0.50000000  0.00000000  0.00000000  0.31
  O2-  O55  1  0.50000000  0.50000000  0.50000000  0.31
  O2-  O56  1  0.00000000  0.50000000  0.00000000  0.72
  O2-  O57  1  0.00000000  0.00000000  0.50000000  0.72
