# generated using pymatgen
data_La8Cu4O16.2
_symmetry_space_group_name_H-M   'P 1'
_cell_length_a   5.35000000
_cell_length_b   13.14800000
_cell_length_c   5.39800000
_cell_angle_alpha   90.00000000
_cell_angle_beta   90.00000000
_cell_angle_gamma   90.00000000
_symmetry_Int_Tables_number   1
_chemical_formula_structural   La8Cu4O16.2
_chemical_formula_sum   'La8 Cu4 O16.2'
_cell_volume   379.70503640
_cell_formula_units_Z   1
loop_
 _symmetry_equiv_pos_site_id
 _symmetry_equiv_pos_as_xyz
  1  'x, y, z'
loop_
 _atom_type_symbol
 _atom_type_oxidation_number
  La3+  3.0
  Cu2.1+  2.1
  O2-  -2.0
loop_
 _atom_site_type_symbol
 _atom_site_label
 _atom_site_symmetry_multiplicity
 _atom_site_fract_x
 _atom_site_fract_y
 _atom_site_fract_z
 _atom_site_occupancy
  La3+  La0  1  0.00000000  0.13912000  0.50530000  1.0
  La3+  La1  1  0.00000000  0.86088000  0.49470000  1.0
  La3+  La2  1  0.00000000  0.36088000  0.00530000  1.0
  La3+  La3  1  0.00000000  0.63912000  0.99470000  1.0
  La3+  La4  1  0.50000000  0.63912000  0.50530000  1.0
  La3+  La5  1  0.50000000  0.36088000  0.49470000  1.0
  La3+  La6  1  0.50000000  0.86088000  0.00530000  1.0
  La3+  La7  1  0.50000000  0.13912000  0.99470000  1.0
  Cu2.1+  Cu8  1  0.00000000  0.50000000  0.50000000  1.0
  Cu2.1+  Cu9  1  0.00000000  0.00000000  0.00000000  1.0
  Cu2.1+  Cu10  1  0.50000000  0.00000000  0.50000000  1.0
  Cu2.1+  Cu11  1  0.50000000  0.50000000  0.00000000  1.0
  O2-  O12  1  0.75000000  0.25800000  0.75000000  0.024
  O2-  O13  1  0.75000000  0.74200000  0.25000000  0.024
  O2-  O14  1  0.75000000  0.24200000  0.25000000  0.024
  O2-  O15  1  0.75000000  0.75800000  0.75000000  0.024
  O2-  O16  1  0.25000000  0.74200000  0.25000000  0.024
  O2-  O17  1  0.25000000  0.25800000  0.75000000  0.024
  O2-  O18  1  0.25000000  0.75800000  0.75000000  0.024
  O2-  O19  1  0.25000000  0.24200000  0.25000000  0.024
  O2-  O20  1  0.96700000  0.31500000  0.60500000  0.04
  O2-  O21  1  0.96700000  0.68500000  0.39500000  0.04
  O2-  O22  1  0.96700000  0.18500000  0.10500000  0.04
  O2-  O23  1  0.96700000  0.81500000  0.89500000  0.04
  O2-  O24  1  0.03300000  0.68500000  0.39500000  0.04
  O2-  O25  1  0.03300000  0.31500000  0.60500000  0.04
  O2-  O26  1  0.03300000  0.81500000  0.89500000  0.04
  O2-  O27  1  0.03300000  0.18500000  0.10500000  0.04
  O2-  O28  1  0.46700000  0.81500000  0.60500000  0.04
  O2-  O29  1  0.46700000  0.18500000  0.39500000  0.04
  O2-  O30  1  0.46700000  0.68500000  0.10500000  0.04
  O2-  O31  1  0.46700000  0.31500000  0.89500000  0.04
  O2-  O32  1  0.53300000  0.18500000  0.39500000  0.04
  O2-  O33  1  0.53300000  0.81500000  0.60500000  0.04
  O2-  O34  1  0.53300000  0.31500000  0.89500000  0.04
  O2-  O35  1  0.53300000  0.68500000  0.10500000  0.04
  O2-  O36  1  0.00000000  0.31770000  0.47390000  0.922
  O2-  O37  1  0.00000000  0.68230000  0.52610000  0.922
  O2-  O38  1  0.00000000  0.18230000  0.97390000  0.922
  O2-  O39  1  0.00000000  0.81770000  0.02610000  0.922
  O2-  O40  1  0.50000000  0.81770000  0.47390000  0.922
  O2-  O41  1  0.50000000  0.18230000  0.52610000  0.922
  O2-  O42  1  0.50000000  0.68230000  0.97390000  0.922
  O2-  O43  1  0.50000000  0.31770000  0.02610000  0.922
  O2-  O44  1  0.75000000  0.50310000  0.75000000  0.999
  O2-  O45  1  0.75000000  0.49690000  0.25000000  0.999
  O2-  O46  1  0.75000000  0.99690000  0.25000000  0.999
  O2-  O47  1  0.75000000  0.00310000  0.75000000  0.999
  O2-  O48  1  0.25000000  0.49690000  0.25000000  0.999
  O2-  O49  1  0.25000000  0.50310000  0.75000000  0.999
  O2-  O50  1  0.25000000  0.00310000  0.75000000  0.999
  O2-  O51  1  0.25000000  0.99690000  0.25000000  0.999
