# generated using pymatgen
data_SrLaTlCuO5
_symmetry_space_group_name_H-M   'P 1'
_cell_length_a   3.77960000
_cell_length_b   3.77960000
_cell_length_c   8.84660000
_cell_angle_alpha   90.00000000
_cell_angle_beta   90.00000000
_cell_angle_gamma   90.00000000
_symmetry_Int_Tables_number   1
_chemical_formula_structural   SrLaTlCuO5
_chemical_formula_sum   'Sr1 La1 Tl1 Cu1 O5'
_cell_volume   126.37700874
_cell_formula_units_Z   1
loop_
 _symmetry_equiv_pos_site_id
 _symmetry_equiv_pos_as_xyz
  1  'x, y, z'
loop_
 _atom_type_symbol
 _atom_type_oxidation_number
  Sr2+  2.0
  La3+  3.0
  Tl3+  3.0
  Cu2+  2.0
  O2-  -2.0
loop_
 _atom_site_type_symbol
 _atom_site_label
 _atom_site_symmetry_multiplicity
 _atom_site_fract_x
 _atom_site_fract_y
 _atom_site_fract_z
 _atom_site_occupancy
  Sr2+  Sr0  1  0.50000000  0.50000000  0.79420000  0.5
  La3+  La1  1  0.50000000  0.50000000  0.79420000  0.5
  Sr2+  Sr2  1  0.50000000  0.50000000  0.20580000  0.5
  La3+  La3  1  0.50000000  0.50000000  0.20580000  0.5
  Tl3+  Tl4  1  0.00000000  0.00000000  0.50000000  1.0
  Cu2+  Cu5  1  0.00000000  0.00000000  0.00000000  1.0
  O2-  O6  1  0.00000000  0.00000000  0.73700000  1.0
  O2-  O7  1  0.00000000  0.00000000  0.26300000  1.0
  O2-  O8  1  0.50000000  0.50000000  0.50000000  1.0
  O2-  O9  1  0.00000000  0.50000000  0.00000000  1.0
  O2-  O10  1  0.50000000  0.00000000  0.00000000  1.0
