# generated using pymatgen
data_Zr2P2.8S1.2
_symmetry_space_group_name_H-M   'P 1'
_cell_length_a   3.58540000
_cell_length_b   3.58540000
_cell_length_c   7.81950000
_cell_angle_alpha   90.00000000
_cell_angle_beta   90.00000000
_cell_angle_gamma   90.00000000
_symmetry_Int_Tables_number   1
_chemical_formula_structural   Zr2P2.8S1.2
_chemical_formula_sum   'Zr2 P2.8 S1.2'
_cell_volume   100.52040096
_cell_formula_units_Z   1
loop_
 _symmetry_equiv_pos_site_id
 _symmetry_equiv_pos_as_xyz
  1  'x, y, z'
loop_
 _atom_type_symbol
 _atom_type_oxidation_number
  Zr0+  0.0
  P0+  0.0
  S0+  0.0
loop_
 _atom_site_type_symbol
 _atom_site_label
 _atom_site_symmetry_multiplicity
 _atom_site_fract_x
 _atom_site_fract_y
 _atom_site_fract_z
 _atom_site_occupancy
  Zr0+  Zr0  1  0.75000000  0.75000000  0.26552000  1.0
  Zr0+  Zr1  1  0.25000000  0.25000000  0.73448000  1.0
  P0+  P2  1  0.75000000  0.25000000  0.00000000  1.0
  P0+  P3  1  0.25000000  0.75000000  0.00000000  1.0
  P0+  P4  1  0.75000000  0.75000000  0.62189000  0.4
  S0+  S5  1  0.75000000  0.75000000  0.62189000  0.6
  P0+  P6  1  0.25000000  0.25000000  0.37811000  0.4
  S0+  S7  1  0.25000000  0.25000000  0.37811000  0.6
