# generated using pymatgen
data_Sr4CaYCu4Bi2(PbO8)2
_symmetry_space_group_name_H-M   'P 1'
_cell_length_a   5.37000000
_cell_length_b   5.42090000
_cell_length_c   30.43900000
_cell_angle_alpha   90.00000000
_cell_angle_beta   90.00000000
_cell_angle_gamma   90.00000000
_symmetry_Int_Tables_number   1
_chemical_formula_structural   Sr4CaYCu4Bi2(PbO8)2
_chemical_formula_sum   'Sr8 Ca2 Y2 Cu8 Bi4 Pb4 O32'
_cell_volume   886.08638229
_cell_formula_units_Z   2
loop_
 _symmetry_equiv_pos_site_id
 _symmetry_equiv_pos_as_xyz
  1  'x, y, z'
loop_
 _atom_type_symbol
 _atom_type_oxidation_number
  Sr2+  2.0
  Ca2+  2.0
  Y3+  3.0
  Cu2.25+  2.25
  Bi3+  3.0
  Pb2+  2.0
  O2-  -2.0
loop_
 _atom_site_type_symbol
 _atom_site_label
 _atom_site_symmetry_multiplicity
 _atom_site_fract_x
 _atom_site_fract_y
 _atom_site_fract_z
 _atom_site_occupancy
  Sr2+  Sr0  1  0.46400000  0.75200000  0.36100000  1.0
  Sr2+  Sr1  1  0.03600000  0.75200000  0.63900000  1.0
  Sr2+  Sr2  1  0.46400000  0.74800000  0.13900000  1.0
  Sr2+  Sr3  1  0.03600000  0.74800000  0.86100000  1.0
  Sr2+  Sr4  1  0.53600000  0.24800000  0.63900000  1.0
  Sr2+  Sr5  1  0.96400000  0.24800000  0.36100000  1.0
  Sr2+  Sr6  1  0.53600000  0.25200000  0.86100000  1.0
  Sr2+  Sr7  1  0.96400000  0.25200000  0.13900000  1.0
  Ca2+  Ca8  1  0.41500000  0.75000000  0.25000000  0.5
  Y3+  Y9  1  0.41500000  0.75000000  0.25000000  0.5
  Ca2+  Ca10  1  0.08500000  0.75000000  0.75000000  0.5
  Y3+  Y11  1  0.08500000  0.75000000  0.75000000  0.5
  Ca2+  Ca12  1  0.58500000  0.25000000  0.75000000  0.5
  Y3+  Y13  1  0.58500000  0.25000000  0.75000000  0.5
  Ca2+  Ca14  1  0.91500000  0.25000000  0.25000000  0.5
  Y3+  Y15  1  0.91500000  0.25000000  0.25000000  0.5
  Cu2.25+  Cu16  1  0.95700000  0.74200000  0.29700000  1.0
  Cu2.25+  Cu17  1  0.54300000  0.74200000  0.70300000  1.0
  Cu2.25+  Cu18  1  0.95700000  0.75800000  0.20300000  1.0
  Cu2.25+  Cu19  1  0.54300000  0.75800000  0.79700000  1.0
  Cu2.25+  Cu20  1  0.04300000  0.25800000  0.70300000  1.0
  Cu2.25+  Cu21  1  0.45700000  0.25800000  0.29700000  1.0
  Cu2.25+  Cu22  1  0.04300000  0.24200000  0.79700000  1.0
  Cu2.25+  Cu23  1  0.45700000  0.24200000  0.20300000  1.0
  Bi3+  Bi24  1  0.48300000  0.24900000  0.44980000  0.5
  Pb2+  Pb25  1  0.48300000  0.24900000  0.44980000  0.5
  Bi3+  Bi26  1  0.01700000  0.24900000  0.55020000  0.5
  Pb2+  Pb27  1  0.01700000  0.24900000  0.55020000  0.5
  Bi3+  Bi28  1  0.48300000  0.25100000  0.05020000  0.5
  Pb2+  Pb29  1  0.48300000  0.25100000  0.05020000  0.5
  Bi3+  Bi30  1  0.01700000  0.25100000  0.94980000  0.5
  Pb2+  Pb31  1  0.01700000  0.25100000  0.94980000  0.5
  Bi3+  Bi32  1  0.51700000  0.75100000  0.55020000  0.5
  Pb2+  Pb33  1  0.51700000  0.75100000  0.55020000  0.5
  Bi3+  Bi34  1  0.98300000  0.75100000  0.44980000  0.5
  Pb2+  Pb35  1  0.98300000  0.75100000  0.44980000  0.5
  Bi3+  Bi36  1  0.51700000  0.74900000  0.94980000  0.5
  Pb2+  Pb37  1  0.51700000  0.74900000  0.94980000  0.5
  Bi3+  Bi38  1  0.98300000  0.74900000  0.05020000  0.5
  Pb2+  Pb39  1  0.98300000  0.74900000  0.05020000  0.5
  O2-  O40  1  0.71900000  0.00700000  0.30560000  1.0
  O2-  O41  1  0.78100000  0.00700000  0.69440000  1.0
  O2-  O42  1  0.71900000  0.49300000  0.19440000  1.0
  O2-  O43  1  0.78100000  0.49300000  0.80560000  1.0
  O2-  O44  1  0.28100000  0.99300000  0.69440000  1.0
  O2-  O45  1  0.21900000  0.99300000  0.30560000  1.0
  O2-  O46  1  0.28100000  0.50700000  0.80560000  1.0
  O2-  O47  1  0.21900000  0.50700000  0.19440000  1.0
  O2-  O48  1  0.50000000  0.73000000  0.42680000  1.0
  O2-  O49  1  0.00000000  0.73000000  0.57320000  1.0
  O2-  O50  1  0.50000000  0.77000000  0.07320000  1.0
  O2-  O51  1  0.00000000  0.77000000  0.92680000  1.0
  O2-  O52  1  0.50000000  0.27000000  0.57320000  1.0
  O2-  O53  1  0.00000000  0.27000000  0.42680000  1.0
  O2-  O54  1  0.50000000  0.23000000  0.92680000  1.0
  O2-  O55  1  0.00000000  0.23000000  0.07320000  1.0
  O2-  O56  1  0.01500000  0.78000000  0.36280000  1.0
  O2-  O57  1  0.48500000  0.78000000  0.63720000  1.0
  O2-  O58  1  0.01500000  0.72000000  0.13720000  1.0
  O2-  O59  1  0.48500000  0.72000000  0.86280000  1.0
  O2-  O60  1  0.98500000  0.22000000  0.63720000  1.0
  O2-  O61  1  0.51500000  0.22000000  0.36280000  1.0
  O2-  O62  1  0.98500000  0.28000000  0.86280000  1.0
  O2-  O63  1  0.51500000  0.28000000  0.13720000  1.0
  O2-  O64  1  0.18000000  0.44000000  0.29200000  1.0
  O2-  O65  1  0.32000000  0.44000000  0.70800000  1.0
  O2-  O66  1  0.18000000  0.06000000  0.20800000  1.0
  O2-  O67  1  0.32000000  0.06000000  0.79200000  1.0
  O2-  O68  1  0.82000000  0.56000000  0.70800000  1.0
  O2-  O69  1  0.68000000  0.56000000  0.29200000  1.0
  O2-  O70  1  0.82000000  0.94000000  0.79200000  1.0
  O2-  O71  1  0.68000000  0.94000000  0.20800000  1.0
