# generated using pymatgen
data_Ba3.2Sr0.8Ca0.2Yb1.8Cu8O16
_symmetry_space_group_name_H-M   'P 1'
_cell_length_a   3.80500000
_cell_length_b   3.85100000
_cell_length_c   27.07600000
_cell_angle_alpha   90.00000000
_cell_angle_beta   90.00000000
_cell_angle_gamma   90.00000000
_symmetry_Int_Tables_number   1
_chemical_formula_structural   Ba3.2Sr0.8Ca0.2Yb1.8Cu8O16
_chemical_formula_sum   'Ba3.2 Sr0.8 Ca0.2 Yb1.8 Cu8 O16'
_cell_volume   396.74611718
_cell_formula_units_Z   1
loop_
 _symmetry_equiv_pos_site_id
 _symmetry_equiv_pos_as_xyz
  1  'x, y, z'
loop_
 _atom_type_symbol
 _atom_type_oxidation_number
  Ba2+  2.0
  Sr2+  2.0
  Ca2+  2.0
  Yb3+  3.0
  Cu2.275+  2.275
  O2-  -2.0
loop_
 _atom_site_type_symbol
 _atom_site_label
 _atom_site_symmetry_multiplicity
 _atom_site_fract_x
 _atom_site_fract_y
 _atom_site_fract_z
 _atom_site_occupancy
  Ba2+  Ba0  1  0.50000000  0.00000000  0.36540000  0.8
  Sr2+  Sr1  1  0.50000000  0.00000000  0.36540000  0.2
  Ba2+  Ba2  1  0.50000000  0.00000000  0.63460000  0.8
  Sr2+  Sr3  1  0.50000000  0.00000000  0.63460000  0.2
  Ba2+  Ba4  1  0.50000000  0.50000000  0.86540000  0.8
  Sr2+  Sr5  1  0.50000000  0.50000000  0.86540000  0.2
  Ba2+  Ba6  1  0.50000000  0.50000000  0.13460000  0.8
  Sr2+  Sr7  1  0.50000000  0.50000000  0.13460000  0.2
  Ca2+  Ca8  1  0.50000000  0.50000000  0.00000000  0.1
  Yb3+  Yb9  1  0.50000000  0.50000000  0.00000000  0.9
  Ca2+  Ca10  1  0.50000000  0.00000000  0.50000000  0.1
  Yb3+  Yb11  1  0.50000000  0.00000000  0.50000000  0.9
  Cu2.275+  Cu12  1  0.00000000  0.00000000  0.21200000  1.0
  Cu2.275+  Cu13  1  0.00000000  0.00000000  0.78800000  1.0
  Cu2.275+  Cu14  1  0.00000000  0.50000000  0.71200000  1.0
  Cu2.275+  Cu15  1  0.00000000  0.50000000  0.28800000  1.0
  Cu2.275+  Cu16  1  0.00000000  0.00000000  0.06080000  1.0
  Cu2.275+  Cu17  1  0.00000000  0.00000000  0.93920000  1.0
  Cu2.275+  Cu18  1  0.00000000  0.50000000  0.56080000  1.0
  Cu2.275+  Cu19  1  0.00000000  0.50000000  0.43920000  1.0
  O2-  O20  1  0.00000000  0.00000000  0.14020000  1.0
  O2-  O21  1  0.00000000  0.00000000  0.85980000  1.0
  O2-  O22  1  0.00000000  0.50000000  0.64020000  1.0
  O2-  O23  1  0.00000000  0.50000000  0.35980000  1.0
  O2-  O24  1  0.50000000  0.00000000  0.05300000  1.0
  O2-  O25  1  0.50000000  0.00000000  0.94700000  1.0
  O2-  O26  1  0.50000000  0.50000000  0.55300000  1.0
  O2-  O27  1  0.50000000  0.50000000  0.44700000  1.0
  O2-  O28  1  0.00000000  0.50000000  0.05720000  1.0
  O2-  O29  1  0.00000000  0.50000000  0.94280000  1.0
  O2-  O30  1  0.00000000  0.00000000  0.55720000  1.0
  O2-  O31  1  0.00000000  0.00000000  0.44280000  1.0
  O2-  O32  1  0.00000000  0.00000000  0.28330000  1.0
  O2-  O33  1  0.00000000  0.00000000  0.71670000  1.0
  O2-  O34  1  0.00000000  0.50000000  0.78330000  1.0
  O2-  O35  1  0.00000000  0.50000000  0.21670000  1.0
