# generated using pymatgen
data_Sr4CeNd3Nb2(CuO5)4
_symmetry_space_group_name_H-M   'P 1'
_cell_length_a   3.88250000
_cell_length_b   3.88250000
_cell_length_c   28.84300000
_cell_angle_alpha   90.00000000
_cell_angle_beta   90.00000000
_cell_angle_gamma   90.00000000
_symmetry_Int_Tables_number   1
_chemical_formula_structural   Sr4CeNd3Nb2(CuO5)4
_chemical_formula_sum   'Sr4 Ce1 Nd3 Nb2 Cu4 O20'
_cell_volume   434.77379367
_cell_formula_units_Z   1
loop_
 _symmetry_equiv_pos_site_id
 _symmetry_equiv_pos_as_xyz
  1  'x, y, z'
loop_
 _atom_type_symbol
 _atom_type_oxidation_number
  Sr2+  2.0
  Ce3+  3.0
  Nd3+  3.0
  Nb5+  5.0
  Cu2.5+  2.5
  O2-  -2.0
loop_
 _atom_site_type_symbol
 _atom_site_label
 _atom_site_symmetry_multiplicity
 _atom_site_fract_x
 _atom_site_fract_y
 _atom_site_fract_z
 _atom_site_occupancy
  Sr2+  Sr0  1  0.50000000  0.50000000  0.91910000  1.0
  Sr2+  Sr1  1  0.50000000  0.50000000  0.08090000  1.0
  Sr2+  Sr2  1  0.00000000  0.00000000  0.41910000  1.0
  Sr2+  Sr3  1  0.00000000  0.00000000  0.58090000  1.0
  Ce3+  Ce4  1  0.50000000  0.50000000  0.79470000  0.25
  Nd3+  Nd5  1  0.50000000  0.50000000  0.79470000  0.75
  Ce3+  Ce6  1  0.50000000  0.50000000  0.20530000  0.25
  Nd3+  Nd7  1  0.50000000  0.50000000  0.20530000  0.75
  Ce3+  Ce8  1  0.00000000  0.00000000  0.29470000  0.25
  Nd3+  Nd9  1  0.00000000  0.00000000  0.29470000  0.75
  Ce3+  Ce10  1  0.00000000  0.00000000  0.70530000  0.25
  Nd3+  Nd11  1  0.00000000  0.00000000  0.70530000  0.75
  Nb5+  Nb12  1  0.00000000  0.00000000  0.00000000  1.0
  Nb5+  Nb13  1  0.50000000  0.50000000  0.50000000  1.0
  Cu2.5+  Cu14  1  0.00000000  0.00000000  0.85710000  1.0
  Cu2.5+  Cu15  1  0.00000000  0.00000000  0.14290000  1.0
  Cu2.5+  Cu16  1  0.50000000  0.50000000  0.35710000  1.0
  Cu2.5+  Cu17  1  0.50000000  0.50000000  0.64290000  1.0
  O2-  O18  1  0.50000000  0.00000000  0.00000000  1.0
  O2-  O19  1  0.00000000  0.50000000  0.00000000  1.0
  O2-  O20  1  0.00000000  0.50000000  0.50000000  1.0
  O2-  O21  1  0.50000000  0.00000000  0.50000000  1.0
  O2-  O22  1  0.00000000  0.00000000  0.92800000  1.0
  O2-  O23  1  0.00000000  0.00000000  0.07200000  1.0
  O2-  O24  1  0.50000000  0.50000000  0.42800000  1.0
  O2-  O25  1  0.50000000  0.50000000  0.57200000  1.0
  O2-  O26  1  0.50000000  0.00000000  0.85320000  1.0
  O2-  O27  1  0.00000000  0.50000000  0.85320000  1.0
  O2-  O28  1  0.50000000  0.00000000  0.14680000  1.0
  O2-  O29  1  0.00000000  0.50000000  0.14680000  1.0
  O2-  O30  1  0.00000000  0.50000000  0.35320000  1.0
  O2-  O31  1  0.50000000  0.00000000  0.35320000  1.0
  O2-  O32  1  0.00000000  0.50000000  0.64680000  1.0
  O2-  O33  1  0.50000000  0.00000000  0.64680000  1.0
  O2-  O34  1  0.50000000  0.00000000  0.75000000  1.0
  O2-  O35  1  0.00000000  0.50000000  0.75000000  1.0
  O2-  O36  1  0.50000000  0.00000000  0.25000000  1.0
  O2-  O37  1  0.00000000  0.50000000  0.25000000  1.0
