# generated using pymatgen
data_Na2.8W10O30
_symmetry_space_group_name_H-M   'P 1'
_cell_length_a   12.07790000
_cell_length_b   12.07790000
_cell_length_c   3.75210000
_cell_angle_alpha   90.00000000
_cell_angle_beta   90.00000000
_cell_angle_gamma   90.00000000
_symmetry_Int_Tables_number   1
_chemical_formula_structural   Na2.8W10O30
_chemical_formula_sum   'Na2.8 W10 O30'
_cell_volume   547.34009544
_cell_formula_units_Z   1
loop_
 _symmetry_equiv_pos_site_id
 _symmetry_equiv_pos_as_xyz
  1  'x, y, z'
loop_
 _atom_type_symbol
 _atom_type_oxidation_number
  Na+  1.0
  W5.72+  5.72
  O2-  -2.0
loop_
 _atom_site_type_symbol
 _atom_site_label
 _atom_site_symmetry_multiplicity
 _atom_site_fract_x
 _atom_site_fract_y
 _atom_site_fract_z
 _atom_site_occupancy
  Na+  Na0  1  0.16900000  0.66900000  0.00000000  0.7
  Na+  Na1  1  0.83100000  0.33100000  0.00000000  0.7
  Na+  Na2  1  0.33100000  0.16900000  0.00000000  0.7
  Na+  Na3  1  0.66900000  0.83100000  0.00000000  0.7
  W5.72+  W4  1  0.00000000  0.50000000  0.50000000  1.0
  W5.72+  W5  1  0.50000000  0.00000000  0.50000000  1.0
  W5.72+  W6  1  0.70620000  0.57770000  0.50000000  1.0
  W5.72+  W7  1  0.29380000  0.42230000  0.50000000  1.0
  W5.72+  W8  1  0.79380000  0.07770000  0.50000000  1.0
  W5.72+  W9  1  0.20620000  0.92230000  0.50000000  1.0
  W5.72+  W10  1  0.57770000  0.29380000  0.50000000  1.0
  W5.72+  W11  1  0.42230000  0.70620000  0.50000000  1.0
  W5.72+  W12  1  0.07770000  0.20620000  0.50000000  1.0
  W5.72+  W13  1  0.92230000  0.79380000  0.50000000  1.0
  O2-  O14  1  0.00000000  0.50000000  0.00000000  1.0
  O2-  O15  1  0.50000000  0.00000000  0.00000000  1.0
  O2-  O16  1  0.70300000  0.56100000  0.00000000  1.0
  O2-  O17  1  0.29700000  0.43900000  0.00000000  1.0
  O2-  O18  1  0.79700000  0.06100000  0.00000000  1.0
  O2-  O19  1  0.20300000  0.93900000  0.00000000  1.0
  O2-  O20  1  0.56100000  0.29700000  0.00000000  1.0
  O2-  O21  1  0.43900000  0.70300000  0.00000000  1.0
  O2-  O22  1  0.06100000  0.20300000  0.00000000  1.0
  O2-  O23  1  0.93900000  0.79700000  0.00000000  1.0
  O2-  O24  1  0.29000000  0.79000000  0.50000000  1.0
  O2-  O25  1  0.71000000  0.21000000  0.50000000  1.0
  O2-  O26  1  0.21000000  0.29000000  0.50000000  1.0
  O2-  O27  1  0.79000000  0.71000000  0.50000000  1.0
  O2-  O28  1  0.83500000  0.49500000  0.50000000  1.0
  O2-  O29  1  0.16500000  0.50500000  0.50000000  1.0
  O2-  O30  1  0.66500000  0.99500000  0.50000000  1.0
  O2-  O31  1  0.33500000  0.00500000  0.50000000  1.0
  O2-  O32  1  0.49500000  0.16500000  0.50000000  1.0
  O2-  O33  1  0.50500000  0.83500000  0.50000000  1.0
  O2-  O34  1  0.99500000  0.33500000  0.50000000  1.0
  O2-  O35  1  0.00500000  0.66500000  0.50000000  1.0
  O2-  O36  1  0.57200000  0.63200000  0.50000000  1.0
  O2-  O37  1  0.42800000  0.36800000  0.50000000  1.0
  O2-  O38  1  0.92800000  0.13200000  0.50000000  1.0
  O2-  O39  1  0.07200000  0.86800000  0.50000000  1.0
  O2-  O40  1  0.63200000  0.42800000  0.50000000  1.0
  O2-  O41  1  0.36800000  0.57200000  0.50000000  1.0
  O2-  O42  1  0.13200000  0.07200000  0.50000000  1.0
  O2-  O43  1  0.86800000  0.92800000  0.50000000  1.0
