# generated using pymatgen
data_Sr4CeSm3Nb2(CuO5)4
_symmetry_space_group_name_H-M   'P 1'
_cell_length_a   3.87090000
_cell_length_b   3.87090000
_cell_length_c   28.79100000
_cell_angle_alpha   90.00000000
_cell_angle_beta   90.00000000
_cell_angle_gamma   90.00000000
_symmetry_Int_Tables_number   1
_chemical_formula_structural   Sr4CeSm3Nb2(CuO5)4
_chemical_formula_sum   'Sr4 Ce1 Sm3 Nb2 Cu4 O20'
_cell_volume   431.40050933
_cell_formula_units_Z   1
loop_
 _symmetry_equiv_pos_site_id
 _symmetry_equiv_pos_as_xyz
  1  'x, y, z'
loop_
 _atom_type_symbol
 _atom_type_oxidation_number
  Sr2+  2.0
  Ce3+  3.0
  Sm3+  3.0
  Nb5+  5.0
  Cu2.5+  2.5
  O2-  -2.0
loop_
 _atom_site_type_symbol
 _atom_site_label
 _atom_site_symmetry_multiplicity
 _atom_site_fract_x
 _atom_site_fract_y
 _atom_site_fract_z
 _atom_site_occupancy
  Sr2+  Sr0  1  0.50000000  0.50000000  0.91860000  1.0
  Sr2+  Sr1  1  0.50000000  0.50000000  0.08140000  1.0
  Sr2+  Sr2  1  0.00000000  0.00000000  0.41860000  1.0
  Sr2+  Sr3  1  0.00000000  0.00000000  0.58140000  1.0
  Ce3+  Ce4  1  0.50000000  0.50000000  0.79430000  0.25
  Sm3+  Sm5  1  0.50000000  0.50000000  0.79430000  0.75
  Ce3+  Ce6  1  0.50000000  0.50000000  0.20570000  0.25
  Sm3+  Sm7  1  0.50000000  0.50000000  0.20570000  0.75
  Ce3+  Ce8  1  0.00000000  0.00000000  0.29430000  0.25
  Sm3+  Sm9  1  0.00000000  0.00000000  0.29430000  0.75
  Ce3+  Ce10  1  0.00000000  0.00000000  0.70570000  0.25
  Sm3+  Sm11  1  0.00000000  0.00000000  0.70570000  0.75
  Nb5+  Nb12  1  0.00000000  0.00000000  0.00000000  1.0
  Nb5+  Nb13  1  0.50000000  0.50000000  0.50000000  1.0
  Cu2.5+  Cu14  1  0.00000000  0.00000000  0.85710000  1.0
  Cu2.5+  Cu15  1  0.00000000  0.00000000  0.14290000  1.0
  Cu2.5+  Cu16  1  0.50000000  0.50000000  0.35710000  1.0
  Cu2.5+  Cu17  1  0.50000000  0.50000000  0.64290000  1.0
  O2-  O18  1  0.50000000  0.00000000  0.00000000  1.0
  O2-  O19  1  0.00000000  0.50000000  0.00000000  1.0
  O2-  O20  1  0.00000000  0.50000000  0.50000000  1.0
  O2-  O21  1  0.50000000  0.00000000  0.50000000  1.0
  O2-  O22  1  0.00000000  0.00000000  0.92970000  1.0
  O2-  O23  1  0.00000000  0.00000000  0.07030000  1.0
  O2-  O24  1  0.50000000  0.50000000  0.42970000  1.0
  O2-  O25  1  0.50000000  0.50000000  0.57030000  1.0
  O2-  O26  1  0.50000000  0.00000000  0.85250000  1.0
  O2-  O27  1  0.00000000  0.50000000  0.85250000  1.0
  O2-  O28  1  0.50000000  0.00000000  0.14750000  1.0
  O2-  O29  1  0.00000000  0.50000000  0.14750000  1.0
  O2-  O30  1  0.00000000  0.50000000  0.35250000  1.0
  O2-  O31  1  0.50000000  0.00000000  0.35250000  1.0
  O2-  O32  1  0.00000000  0.50000000  0.64750000  1.0
  O2-  O33  1  0.50000000  0.00000000  0.64750000  1.0
  O2-  O34  1  0.50000000  0.00000000  0.75000000  1.0
  O2-  O35  1  0.00000000  0.50000000  0.75000000  1.0
  O2-  O36  1  0.50000000  0.00000000  0.25000000  1.0
  O2-  O37  1  0.00000000  0.50000000  0.25000000  1.0
