# generated using pymatgen
data_Cs1.8W6O18
_symmetry_space_group_name_H-M   'P 1'
_cell_length_a   7.40490000
_cell_length_b   7.40490000
_cell_length_c   7.60980000
_cell_angle_alpha   90.00000000
_cell_angle_beta   90.00000000
_cell_angle_gamma   120.00000000
_symmetry_Int_Tables_number   1
_chemical_formula_structural   Cs1.8W6O18
_chemical_formula_sum   'Cs1.8 W6 O18'
_cell_volume   361.36182459
_cell_formula_units_Z   1
loop_
 _symmetry_equiv_pos_site_id
 _symmetry_equiv_pos_as_xyz
  1  'x, y, z'
loop_
 _atom_type_symbol
 _atom_type_oxidation_number
  Cs+  1.0
  W5.7+  5.7
  O2-  -2.0
loop_
 _atom_site_type_symbol
 _atom_site_label
 _atom_site_symmetry_multiplicity
 _atom_site_fract_x
 _atom_site_fract_y
 _atom_site_fract_z
 _atom_site_occupancy
  Cs+  Cs0  1  0.00000000  0.00000000  0.50000000  0.9
  Cs+  Cs1  1  0.00000000  0.00000000  0.00000000  0.9
  W5.7+  W2  1  0.51430000  0.51430000  0.25000000  1.0
  W5.7+  W3  1  0.48570000  0.00000000  0.25000000  1.0
  W5.7+  W4  1  0.00000000  0.48570000  0.25000000  1.0
  W5.7+  W5  1  0.48570000  0.48570000  0.75000000  1.0
  W5.7+  W6  1  0.51430000  0.00000000  0.75000000  1.0
  W5.7+  W7  1  0.00000000  0.51430000  0.75000000  1.0
  O2-  O8  1  0.78980000  0.20830000  0.25000000  1.0
  O2-  O9  1  0.79170000  0.58150000  0.25000000  1.0
  O2-  O10  1  0.41850000  0.21020000  0.25000000  1.0
  O2-  O11  1  0.20830000  0.78980000  0.25000000  1.0
  O2-  O12  1  0.58150000  0.79170000  0.25000000  1.0
  O2-  O13  1  0.21020000  0.41850000  0.25000000  1.0
  O2-  O14  1  0.21020000  0.79170000  0.75000000  1.0
  O2-  O15  1  0.20830000  0.41850000  0.75000000  1.0
  O2-  O16  1  0.58150000  0.78980000  0.75000000  1.0
  O2-  O17  1  0.79170000  0.21020000  0.75000000  1.0
  O2-  O18  1  0.41850000  0.20830000  0.75000000  1.0
  O2-  O19  1  0.78980000  0.58150000  0.75000000  1.0
  O2-  O20  1  0.50700000  0.50700000  0.49000000  0.5
  O2-  O21  1  0.49300000  0.00000000  0.49000000  0.5
  O2-  O22  1  0.00000000  0.49300000  0.49000000  0.5
  O2-  O23  1  0.49300000  0.49300000  0.51000000  0.5
  O2-  O24  1  0.50700000  0.00000000  0.51000000  0.5
  O2-  O25  1  0.00000000  0.50700000  0.51000000  0.5
  O2-  O26  1  0.49300000  0.49300000  0.99000000  0.5
  O2-  O27  1  0.50700000  0.00000000  0.99000000  0.5
  O2-  O28  1  0.00000000  0.50700000  0.99000000  0.5
  O2-  O29  1  0.50700000  0.50700000  0.01000000  0.5
  O2-  O30  1  0.49300000  0.00000000  0.01000000  0.5
  O2-  O31  1  0.00000000  0.49300000  0.01000000  0.5
