# generated using pymatgen
data_La8Cu4O16.344
_symmetry_space_group_name_H-M   'P 1'
_cell_length_a   5.32360000
_cell_length_b   5.40330000
_cell_length_c   13.18350000
_cell_angle_alpha   90.00000000
_cell_angle_beta   90.00000000
_cell_angle_gamma   90.00000000
_symmetry_Int_Tables_number   1
_chemical_formula_structural   La8Cu4O16.344
_chemical_formula_sum   'La8 Cu4 O16.344'
_cell_volume   379.22348139
_cell_formula_units_Z   1
loop_
 _symmetry_equiv_pos_site_id
 _symmetry_equiv_pos_as_xyz
  1  'x, y, z'
loop_
 _atom_type_symbol
 _atom_type_oxidation_number
  La3+  3.0
  Cu2.172+  2.172
  O2-  -2.0
loop_
 _atom_site_type_symbol
 _atom_site_label
 _atom_site_symmetry_multiplicity
 _atom_site_fract_x
 _atom_site_fract_y
 _atom_site_fract_z
 _atom_site_occupancy
  La3+  La0  1  0.00000000  0.50170000  0.13880000  1.0
  La3+  La1  1  0.00000000  0.49830000  0.86120000  1.0
  La3+  La2  1  0.00000000  0.00170000  0.36120000  1.0
  La3+  La3  1  0.00000000  0.99830000  0.63880000  1.0
  La3+  La4  1  0.50000000  0.50170000  0.63880000  1.0
  La3+  La5  1  0.50000000  0.49830000  0.36120000  1.0
  La3+  La6  1  0.50000000  0.00170000  0.86120000  1.0
  La3+  La7  1  0.50000000  0.99830000  0.13880000  1.0
  Cu2.172+  Cu8  1  0.00000000  0.50000000  0.50000000  1.0
  Cu2.172+  Cu9  1  0.00000000  0.00000000  0.00000000  1.0
  Cu2.172+  Cu10  1  0.50000000  0.50000000  0.00000000  1.0
  Cu2.172+  Cu11  1  0.50000000  0.00000000  0.50000000  1.0
  O2-  O12  1  0.00000000  0.46560000  0.31760000  0.883
  O2-  O13  1  0.00000000  0.53440000  0.68240000  0.883
  O2-  O14  1  0.00000000  0.96560000  0.18240000  0.883
  O2-  O15  1  0.00000000  0.03440000  0.81760000  0.883
  O2-  O16  1  0.50000000  0.46560000  0.81760000  0.883
  O2-  O17  1  0.50000000  0.53440000  0.18240000  0.883
  O2-  O18  1  0.50000000  0.96560000  0.68240000  0.883
  O2-  O19  1  0.50000000  0.03440000  0.31760000  0.883
  O2-  O20  1  0.75000000  0.25000000  0.50150000  1.0
  O2-  O21  1  0.75000000  0.75000000  0.49850000  1.0
  O2-  O22  1  0.75000000  0.75000000  0.99850000  1.0
  O2-  O23  1  0.75000000  0.25000000  0.00150000  1.0
  O2-  O24  1  0.25000000  0.75000000  0.49850000  1.0
  O2-  O25  1  0.25000000  0.25000000  0.50150000  1.0
  O2-  O26  1  0.25000000  0.25000000  0.00150000  1.0
  O2-  O27  1  0.25000000  0.75000000  0.99850000  1.0
  O2-  O28  1  0.94290000  0.73300000  0.29330000  0.0585
  O2-  O29  1  0.94290000  0.26700000  0.70670000  0.0585
  O2-  O30  1  0.94290000  0.23300000  0.20670000  0.0585
  O2-  O31  1  0.94290000  0.76700000  0.79330000  0.0585
  O2-  O32  1  0.05710000  0.26700000  0.70670000  0.0585
  O2-  O33  1  0.05710000  0.73300000  0.29330000  0.0585
  O2-  O34  1  0.05710000  0.76700000  0.79330000  0.0585
  O2-  O35  1  0.05710000  0.23300000  0.20670000  0.0585
  O2-  O36  1  0.44290000  0.73300000  0.79330000  0.0585
  O2-  O37  1  0.44290000  0.26700000  0.20670000  0.0585
  O2-  O38  1  0.44290000  0.23300000  0.70670000  0.0585
  O2-  O39  1  0.44290000  0.76700000  0.29330000  0.0585
  O2-  O40  1  0.55710000  0.26700000  0.20670000  0.0585
  O2-  O41  1  0.55710000  0.73300000  0.79330000  0.0585
  O2-  O42  1  0.55710000  0.76700000  0.29330000  0.0585
  O2-  O43  1  0.55710000  0.23300000  0.70670000  0.0585
  O2-  O44  1  0.75000000  0.25000000  0.24930000  0.043
  O2-  O45  1  0.75000000  0.75000000  0.75070000  0.043
  O2-  O46  1  0.75000000  0.75000000  0.25070000  0.043
  O2-  O47  1  0.75000000  0.25000000  0.74930000  0.043
  O2-  O48  1  0.25000000  0.75000000  0.75070000  0.043
  O2-  O49  1  0.25000000  0.25000000  0.24930000  0.043
  O2-  O50  1  0.25000000  0.25000000  0.74930000  0.043
  O2-  O51  1  0.25000000  0.75000000  0.25070000  0.043
