# generated using pymatgen
data_Ba0.34La3.66Cu2O8
_symmetry_space_group_name_H-M   'P 1'
_cell_length_a   3.77993000
_cell_length_b   3.77993000
_cell_length_c   13.28850000
_cell_angle_alpha   90.00000000
_cell_angle_beta   90.00000000
_cell_angle_gamma   90.00000000
_symmetry_Int_Tables_number   1
_chemical_formula_structural   Ba0.34La3.66Cu2O8
_chemical_formula_sum   'Ba0.34 La3.66 Cu2 O8'
_cell_volume   189.86437119
_cell_formula_units_Z   1
loop_
 _symmetry_equiv_pos_site_id
 _symmetry_equiv_pos_as_xyz
  1  'x, y, z'
loop_
 _atom_type_symbol
 _atom_type_oxidation_number
  Ba2+  2.0
  La3+  3.0
  Cu2.17+  2.17
  O2-  -2.0
loop_
 _atom_site_type_symbol
 _atom_site_label
 _atom_site_symmetry_multiplicity
 _atom_site_fract_x
 _atom_site_fract_y
 _atom_site_fract_z
 _atom_site_occupancy
  Ba2+  Ba0  1  0.00000000  0.00000000  0.63929000  0.085
  La3+  La1  1  0.00000000  0.00000000  0.63929000  0.915
  Ba2+  Ba2  1  0.00000000  0.00000000  0.36071000  0.085
  La3+  La3  1  0.00000000  0.00000000  0.36071000  0.915
  Ba2+  Ba4  1  0.50000000  0.50000000  0.13929000  0.085
  La3+  La5  1  0.50000000  0.50000000  0.13929000  0.915
  Ba2+  Ba6  1  0.50000000  0.50000000  0.86071000  0.085
  La3+  La7  1  0.50000000  0.50000000  0.86071000  0.915
  Cu2.17+  Cu8  1  0.00000000  0.00000000  0.00000000  1.0
  Cu2.17+  Cu9  1  0.50000000  0.50000000  0.50000000  1.0
  O2-  O10  1  0.50000000  0.00000000  0.00000000  1.0
  O2-  O11  1  0.00000000  0.50000000  0.00000000  1.0
  O2-  O12  1  0.00000000  0.50000000  0.50000000  1.0
  O2-  O13  1  0.50000000  0.00000000  0.50000000  1.0
  O2-  O14  1  0.00000000  0.00000000  0.81830000  1.0
  O2-  O15  1  0.00000000  0.00000000  0.18170000  1.0
  O2-  O16  1  0.50000000  0.50000000  0.31830000  1.0
  O2-  O17  1  0.50000000  0.50000000  0.68170000  1.0
