# generated using pymatgen
data_Sr16Cu8B1.2C6.8O40
_symmetry_space_group_name_H-M   'P 1'
_cell_length_a   7.78810000
_cell_length_b   7.78810000
_cell_length_c   14.96810000
_cell_angle_alpha   90.00000000
_cell_angle_beta   90.00000000
_cell_angle_gamma   90.00000000
_symmetry_Int_Tables_number   1
_chemical_formula_structural   Sr16Cu8B1.2C6.8O40
_chemical_formula_sum   'Sr16 Cu8 B1.2 C6.8 O40'
_cell_volume   907.88264555
_cell_formula_units_Z   1
loop_
 _symmetry_equiv_pos_site_id
 _symmetry_equiv_pos_as_xyz
  1  'x, y, z'
loop_
 _atom_type_symbol
 _atom_type_oxidation_number
  Sr2+  2.0
  Cu2.15+  2.15
  B3+  3.0
  C4+  4.0
  O2-  -2.0
loop_
 _atom_site_type_symbol
 _atom_site_label
 _atom_site_symmetry_multiplicity
 _atom_site_fract_x
 _atom_site_fract_y
 _atom_site_fract_z
 _atom_site_occupancy
  Sr2+  Sr0  1  0.00000000  0.00000000  0.88600000  1.0
  Sr2+  Sr1  1  0.00000000  0.00000000  0.11400000  1.0
  Sr2+  Sr2  1  0.50000000  0.50000000  0.38600000  1.0
  Sr2+  Sr3  1  0.50000000  0.50000000  0.61400000  1.0
  Sr2+  Sr4  1  0.00000000  0.00000000  0.61700000  1.0
  Sr2+  Sr5  1  0.00000000  0.00000000  0.38300000  1.0
  Sr2+  Sr6  1  0.50000000  0.50000000  0.11700000  1.0
  Sr2+  Sr7  1  0.50000000  0.50000000  0.88300000  1.0
  Sr2+  Sr8  1  0.50000000  0.00000000  0.89500000  1.0
  Sr2+  Sr9  1  0.00000000  0.50000000  0.10500000  1.0
  Sr2+  Sr10  1  0.00000000  0.50000000  0.39500000  1.0
  Sr2+  Sr11  1  0.50000000  0.00000000  0.60500000  1.0
  Sr2+  Sr12  1  0.00000000  0.50000000  0.62200000  1.0
  Sr2+  Sr13  1  0.50000000  0.00000000  0.37800000  1.0
  Sr2+  Sr14  1  0.50000000  0.00000000  0.12200000  1.0
  Sr2+  Sr15  1  0.00000000  0.50000000  0.87800000  1.0
  Cu2.15+  Cu16  1  0.75100000  0.24600000  0.00000000  1.0
  Cu2.15+  Cu17  1  0.24900000  0.75400000  0.00000000  1.0
  Cu2.15+  Cu18  1  0.75400000  0.75100000  0.00000000  1.0
  Cu2.15+  Cu19  1  0.24600000  0.24900000  0.00000000  1.0
  Cu2.15+  Cu20  1  0.25100000  0.74600000  0.50000000  1.0
  Cu2.15+  Cu21  1  0.74900000  0.25400000  0.50000000  1.0
  Cu2.15+  Cu22  1  0.25400000  0.25100000  0.50000000  1.0
  Cu2.15+  Cu23  1  0.74600000  0.74900000  0.50000000  1.0
  B3+  B24  1  0.76000000  0.22200000  0.74800000  0.15
  C4+  C25  1  0.76000000  0.22200000  0.74800000  0.85
  B3+  B26  1  0.24000000  0.77800000  0.74800000  0.15
  C4+  C27  1  0.24000000  0.77800000  0.74800000  0.85
  B3+  B28  1  0.77800000  0.76000000  0.25200000  0.15
  C4+  C29  1  0.77800000  0.76000000  0.25200000  0.85
  B3+  B30  1  0.22200000  0.24000000  0.25200000  0.15
  C4+  C31  1  0.22200000  0.24000000  0.25200000  0.85
  B3+  B32  1  0.26000000  0.72200000  0.24800000  0.15
  C4+  C33  1  0.26000000  0.72200000  0.24800000  0.85
  B3+  B34  1  0.74000000  0.27800000  0.24800000  0.15
  C4+  C35  1  0.74000000  0.27800000  0.24800000  0.85
  B3+  B36  1  0.27800000  0.26000000  0.75200000  0.15
  C4+  C37  1  0.27800000  0.26000000  0.75200000  0.85
  B3+  B38  1  0.72200000  0.74000000  0.75200000  0.15
  C4+  C39  1  0.72200000  0.74000000  0.75200000  0.85
  O2-  O40  1  0.00000000  0.24000000  0.99600000  1.0
  O2-  O41  1  0.00000000  0.76000000  0.99600000  1.0
  O2-  O42  1  0.76000000  0.00000000  0.00400000  1.0
  O2-  O43  1  0.24000000  0.00000000  0.00400000  1.0
  O2-  O44  1  0.50000000  0.74000000  0.49600000  1.0
  O2-  O45  1  0.50000000  0.26000000  0.49600000  1.0
  O2-  O46  1  0.26000000  0.50000000  0.50400000  1.0
  O2-  O47  1  0.74000000  0.50000000  0.50400000  1.0
  O2-  O48  1  0.00000000  0.25000000  0.50900000  1.0
  O2-  O49  1  0.00000000  0.75000000  0.50900000  1.0
  O2-  O50  1  0.75000000  0.00000000  0.49100000  1.0
  O2-  O51  1  0.25000000  0.00000000  0.49100000  1.0
  O2-  O52  1  0.50000000  0.75000000  0.00900000  1.0
  O2-  O53  1  0.50000000  0.25000000  0.00900000  1.0
  O2-  O54  1  0.25000000  0.50000000  0.99100000  1.0
  O2-  O55  1  0.75000000  0.50000000  0.99100000  1.0
  O2-  O56  1  0.25000000  0.14200000  0.82000000  1.0
  O2-  O57  1  0.75000000  0.85800000  0.82000000  1.0
  O2-  O58  1  0.85800000  0.25000000  0.18000000  1.0
  O2-  O59  1  0.14200000  0.75000000  0.18000000  1.0
  O2-  O60  1  0.75000000  0.64200000  0.32000000  1.0
  O2-  O61  1  0.25000000  0.35800000  0.32000000  1.0
  O2-  O62  1  0.35800000  0.75000000  0.68000000  1.0
  O2-  O63  1  0.64200000  0.25000000  0.68000000  1.0
  O2-  O64  1  0.24900000  0.42700000  0.76300000  1.0
  O2-  O65  1  0.75100000  0.57300000  0.76300000  1.0
  O2-  O66  1  0.57300000  0.24900000  0.23700000  1.0
  O2-  O67  1  0.42700000  0.75100000  0.23700000  1.0
  O2-  O68  1  0.74900000  0.92700000  0.26300000  1.0
  O2-  O69  1  0.25100000  0.07300000  0.26300000  1.0
  O2-  O70  1  0.07300000  0.74900000  0.73700000  1.0
  O2-  O71  1  0.92700000  0.25100000  0.73700000  1.0
  O2-  O72  1  0.73000000  0.21800000  0.83000000  1.0
  O2-  O73  1  0.27000000  0.78200000  0.83000000  1.0
  O2-  O74  1  0.78200000  0.73000000  0.17000000  1.0
  O2-  O75  1  0.21800000  0.27000000  0.17000000  1.0
  O2-  O76  1  0.23000000  0.71800000  0.33000000  1.0
  O2-  O77  1  0.77000000  0.28200000  0.33000000  1.0
  O2-  O78  1  0.28200000  0.23000000  0.67000000  1.0
  O2-  O79  1  0.71800000  0.77000000  0.67000000  1.0
