# generated using pymatgen
data_Sr4Ca0.3Y1.7Cu6Pb4O16
_symmetry_space_group_name_H-M   'P 1'
_cell_length_a   5.38200000
_cell_length_b   5.42000000
_cell_length_c   15.75000000
_cell_angle_alpha   90.00000000
_cell_angle_beta   90.00000000
_cell_angle_gamma   90.00000000
_symmetry_Int_Tables_number   1
_chemical_formula_structural   Sr4Ca0.3Y1.7Cu6Pb4O16
_chemical_formula_sum   'Sr4 Ca0.3 Y1.7 Cu6 Pb4 O16'
_cell_volume   459.43443000
_cell_formula_units_Z   1
loop_
 _symmetry_equiv_pos_site_id
 _symmetry_equiv_pos_as_xyz
  1  'x, y, z'
loop_
 _atom_type_symbol
 _atom_type_oxidation_number
  Sr2+  2.0
  Ca2+  2.0
  Y3+  3.0
  Cu1.72+  1.72
  Pb2+  2.0
  O2-  -2.0
loop_
 _atom_site_type_symbol
 _atom_site_label
 _atom_site_symmetry_multiplicity
 _atom_site_fract_x
 _atom_site_fract_y
 _atom_site_fract_z
 _atom_site_occupancy
  Sr2+  Sr0  1  0.00000000  0.00000000  0.77880000  1.0
  Sr2+  Sr1  1  0.00000000  0.00000000  0.22120000  1.0
  Sr2+  Sr2  1  0.50000000  0.50000000  0.77880000  1.0
  Sr2+  Sr3  1  0.50000000  0.50000000  0.22120000  1.0
  Ca2+  Ca4  1  0.00000000  0.00000000  0.00000000  0.15
  Y3+  Y5  1  0.00000000  0.00000000  0.00000000  0.85
  Ca2+  Ca6  1  0.50000000  0.50000000  0.00000000  0.15
  Y3+  Y7  1  0.50000000  0.50000000  0.00000000  0.85
  Cu1.72+  Cu8  1  0.00000000  0.00000000  0.50000000  1.0
  Cu1.72+  Cu9  1  0.50000000  0.50000000  0.50000000  1.0
  Cu1.72+  Cu10  1  0.50000000  0.00000000  0.89350000  1.0
  Cu1.72+  Cu11  1  0.50000000  0.00000000  0.10650000  1.0
  Cu1.72+  Cu12  1  0.00000000  0.50000000  0.89350000  1.0
  Cu1.72+  Cu13  1  0.00000000  0.50000000  0.10650000  1.0
  Pb2+  Pb14  1  0.50000000  0.00000000  0.61250000  1.0
  Pb2+  Pb15  1  0.50000000  0.00000000  0.38750000  1.0
  Pb2+  Pb16  1  0.00000000  0.50000000  0.61250000  1.0
  Pb2+  Pb17  1  0.00000000  0.50000000  0.38750000  1.0
  O2-  O18  1  0.50000000  0.00000000  0.74750000  1.0
  O2-  O19  1  0.50000000  0.00000000  0.25250000  1.0
  O2-  O20  1  0.00000000  0.50000000  0.74750000  1.0
  O2-  O21  1  0.00000000  0.50000000  0.25250000  1.0
  O2-  O22  1  0.96900000  0.91100000  0.61000000  1.0
  O2-  O23  1  0.03100000  0.08900000  0.39000000  1.0
  O2-  O24  1  0.45100000  0.56000000  0.62200000  1.0
  O2-  O25  1  0.54900000  0.44000000  0.37800000  1.0
  O2-  O26  1  0.75000000  0.75000000  0.90710000  1.0
  O2-  O27  1  0.25000000  0.25000000  0.09290000  1.0
  O2-  O28  1  0.25000000  0.25000000  0.90710000  1.0
  O2-  O29  1  0.75000000  0.75000000  0.09290000  1.0
  O2-  O30  1  0.75000000  0.25000000  0.90710000  1.0
  O2-  O31  1  0.25000000  0.75000000  0.09290000  1.0
  O2-  O32  1  0.25000000  0.75000000  0.90710000  1.0
  O2-  O33  1  0.75000000  0.25000000  0.09290000  1.0
