# generated using pymatgen
data_Sr2Ca0.8Y0.2Tl0.5Cu2Pb0.5O7
_symmetry_space_group_name_H-M   'P 1'
_cell_length_a   3.80300000
_cell_length_b   3.80300000
_cell_length_c   12.01000000
_cell_angle_alpha   90.00000000
_cell_angle_beta   90.00000000
_cell_angle_gamma   90.00000000
_symmetry_Int_Tables_number   1
_chemical_formula_structural   Sr2Ca0.8Y0.2Tl0.5Cu2Pb0.5O7
_chemical_formula_sum   'Sr2 Ca0.8 Y0.2 Tl0.5 Cu2 Pb0.5 O7'
_cell_volume   173.69833609
_cell_formula_units_Z   1
loop_
 _symmetry_equiv_pos_site_id
 _symmetry_equiv_pos_as_xyz
  1  'x, y, z'
loop_
 _atom_type_symbol
 _atom_type_oxidation_number
  Sr2+  2.0
  Ca2+  2.0
  Y3+  3.0
  Tl3+  3.0
  Cu2.65+  2.65
  Pb2+  2.0
  O2-  -2.0
loop_
 _atom_site_type_symbol
 _atom_site_label
 _atom_site_symmetry_multiplicity
 _atom_site_fract_x
 _atom_site_fract_y
 _atom_site_fract_z
 _atom_site_occupancy
  Sr2+  Sr0  1  0.50000000  0.50000000  0.80800000  1.0
  Sr2+  Sr1  1  0.50000000  0.50000000  0.19200000  1.0
  Ca2+  Ca2  1  0.50000000  0.50000000  0.50000000  0.8
  Y3+  Y3  1  0.50000000  0.50000000  0.50000000  0.2
  Cu2.65+  Cu4  1  0.00000000  0.00000000  0.65400000  1.0
  Cu2.65+  Cu5  1  0.00000000  0.00000000  0.34600000  1.0
  Tl3+  Tl6  1  0.00000000  0.00000000  0.00000000  0.5
  Pb2+  Pb7  1  0.00000000  0.00000000  0.00000000  0.5
  O2-  O8  1  0.50000000  0.50000000  0.00000000  1.0
  O2-  O9  1  0.00000000  0.00000000  0.82500000  1.0
  O2-  O10  1  0.00000000  0.00000000  0.17500000  1.0
  O2-  O11  1  0.50000000  0.00000000  0.62700000  1.0
  O2-  O12  1  0.00000000  0.50000000  0.62700000  1.0
  O2-  O13  1  0.50000000  0.00000000  0.37300000  1.0
  O2-  O14  1  0.00000000  0.50000000  0.37300000  1.0
