# generated using pymatgen
data_Sr2Ca1Tl0.5Cu2Pb0.5O7
_symmetry_space_group_name_H-M   'P 1'
_cell_length_a   3.78500000
_cell_length_b   3.78500000
_cell_length_c   12.05900000
_cell_angle_alpha   90.00000000
_cell_angle_beta   90.00000000
_cell_angle_gamma   90.00000000
_symmetry_Int_Tables_number   1
_chemical_formula_structural   Sr2Ca1Tl0.5Cu2Pb0.5O7
_chemical_formula_sum   'Sr2 Ca1 Tl0.5 Cu2 Pb0.5 O7'
_cell_volume   172.75994728
_cell_formula_units_Z   1
loop_
 _symmetry_equiv_pos_site_id
 _symmetry_equiv_pos_as_xyz
  1  'x, y, z'
loop_
 _atom_type_symbol
 _atom_type_oxidation_number
  Sr2+  2.0
  Ca2+  2.0
  Tl3+  3.0
  Cu2.75+  2.75
  Pb2+  2.0
  O2-  -2.0
loop_
 _atom_site_type_symbol
 _atom_site_label
 _atom_site_symmetry_multiplicity
 _atom_site_fract_x
 _atom_site_fract_y
 _atom_site_fract_z
 _atom_site_occupancy
  Sr2+  Sr0  1  0.50000000  0.50000000  0.80900000  1.0
  Sr2+  Sr1  1  0.50000000  0.50000000  0.19100000  1.0
  Ca2+  Ca2  1  0.50000000  0.50000000  0.50000000  1.0
  Cu2.75+  Cu3  1  0.00000000  0.00000000  0.65700000  1.0
  Cu2.75+  Cu4  1  0.00000000  0.00000000  0.34300000  1.0
  Tl3+  Tl5  1  0.00000000  0.00000000  0.00000000  0.5
  Pb2+  Pb6  1  0.00000000  0.00000000  0.00000000  0.5
  O2-  O7  1  0.50000000  0.50000000  0.00000000  1.0
  O2-  O8  1  0.00000000  0.00000000  0.82500000  1.0
  O2-  O9  1  0.00000000  0.00000000  0.17500000  1.0
  O2-  O10  1  0.50000000  0.00000000  0.62700000  1.0
  O2-  O11  1  0.00000000  0.50000000  0.62700000  1.0
  O2-  O12  1  0.50000000  0.00000000  0.37300000  1.0
  O2-  O13  1  0.00000000  0.50000000  0.37300000  1.0
