# generated using pymatgen
data_Ba4Ca0.14Y1.86Cu8O16
_symmetry_space_group_name_H-M   'P 1'
_cell_length_a   3.83620000
_cell_length_b   3.86400000
_cell_length_c   27.17600000
_cell_angle_alpha   90.00000000
_cell_angle_beta   90.00000000
_cell_angle_gamma   90.00000000
_symmetry_Int_Tables_number   1
_chemical_formula_structural   Ba4Ca0.14Y1.86Cu8O16
_chemical_formula_sum   'Ba4 Ca0.14 Y1.86 Cu8 O16'
_cell_volume   402.83193512
_cell_formula_units_Z   1
loop_
 _symmetry_equiv_pos_site_id
 _symmetry_equiv_pos_as_xyz
  1  'x, y, z'
loop_
 _atom_type_symbol
 _atom_type_oxidation_number
  Ba2+  2.0
  Ca2+  2.0
  Y3+  3.0
  Cu2.27+  2.27
  O2-  -2.0
loop_
 _atom_site_type_symbol
 _atom_site_label
 _atom_site_symmetry_multiplicity
 _atom_site_fract_x
 _atom_site_fract_y
 _atom_site_fract_z
 _atom_site_occupancy
  Ba2+  Ba0  1  0.50000000  0.50000000  0.13510000  1.0
  Ba2+  Ba1  1  0.50000000  0.50000000  0.86490000  1.0
  Ba2+  Ba2  1  0.50000000  0.00000000  0.63510000  1.0
  Ba2+  Ba3  1  0.50000000  0.00000000  0.36490000  1.0
  Ca2+  Ca4  1  0.50000000  0.50000000  0.00000000  0.07
  Y3+  Y5  1  0.50000000  0.50000000  0.00000000  0.93
  Ca2+  Ca6  1  0.50000000  0.00000000  0.50000000  0.07
  Y3+  Y7  1  0.50000000  0.00000000  0.50000000  0.93
  Cu2.27+  Cu8  1  0.00000000  0.00000000  0.21270000  1.0
  Cu2.27+  Cu9  1  0.00000000  0.00000000  0.78730000  1.0
  Cu2.27+  Cu10  1  0.00000000  0.50000000  0.71270000  1.0
  Cu2.27+  Cu11  1  0.00000000  0.50000000  0.28730000  1.0
  Cu2.27+  Cu12  1  0.00000000  0.00000000  0.06120000  1.0
  Cu2.27+  Cu13  1  0.00000000  0.00000000  0.93880000  1.0
  Cu2.27+  Cu14  1  0.00000000  0.50000000  0.56120000  1.0
  Cu2.27+  Cu15  1  0.00000000  0.50000000  0.43880000  1.0
  O2-  O16  1  0.00000000  0.00000000  0.14480000  1.0
  O2-  O17  1  0.00000000  0.00000000  0.85520000  1.0
  O2-  O18  1  0.00000000  0.50000000  0.64480000  1.0
  O2-  O19  1  0.00000000  0.50000000  0.35520000  1.0
  O2-  O20  1  0.50000000  0.00000000  0.05260000  1.0
  O2-  O21  1  0.50000000  0.00000000  0.94740000  1.0
  O2-  O22  1  0.50000000  0.50000000  0.55260000  1.0
  O2-  O23  1  0.50000000  0.50000000  0.44740000  1.0
  O2-  O24  1  0.00000000  0.50000000  0.05240000  1.0
  O2-  O25  1  0.00000000  0.50000000  0.94760000  1.0
  O2-  O26  1  0.00000000  0.00000000  0.55240000  1.0
  O2-  O27  1  0.00000000  0.00000000  0.44760000  1.0
  O2-  O28  1  0.00000000  0.50000000  0.21840000  1.0
  O2-  O29  1  0.00000000  0.50000000  0.78160000  1.0
  O2-  O30  1  0.00000000  0.00000000  0.71840000  1.0
  O2-  O31  1  0.00000000  0.00000000  0.28160000  1.0
