# generated using pymatgen
data_Sr4Cu2Bi2CO11
_symmetry_space_group_name_H-M   'P 1'
_cell_length_a   5.46600000
_cell_length_b   5.46000000
_cell_length_c   39.50000000
_cell_angle_alpha   90.00000000
_cell_angle_beta   90.00000000
_cell_angle_gamma   90.00000000
_symmetry_Int_Tables_number   1
_chemical_formula_structural   Sr4Cu2Bi2CO11
_chemical_formula_sum   'Sr16 Cu8 Bi8 C4 O44'
_cell_volume   1178.85222000
_cell_formula_units_Z   4
loop_
 _symmetry_equiv_pos_site_id
 _symmetry_equiv_pos_as_xyz
  1  'x, y, z'
loop_
 _atom_type_symbol
 _atom_type_oxidation_number
  Sr2+  2.0
  Cu2+  2.0
  Bi3+  3.0
  C4+  4.0
  O2-  -2.0
loop_
 _atom_site_type_symbol
 _atom_site_label
 _atom_site_symmetry_multiplicity
 _atom_site_fract_x
 _atom_site_fract_y
 _atom_site_fract_z
 _atom_site_occupancy
  Sr2+  Sr0  1  0.25000000  0.50000000  0.10900000  1.0
  Sr2+  Sr1  1  0.75000000  0.50000000  0.89100000  1.0
  Sr2+  Sr2  1  0.75000000  0.00000000  0.10900000  1.0
  Sr2+  Sr3  1  0.25000000  0.00000000  0.89100000  1.0
  Sr2+  Sr4  1  0.25000000  0.00000000  0.60900000  1.0
  Sr2+  Sr5  1  0.75000000  0.00000000  0.39100000  1.0
  Sr2+  Sr6  1  0.75000000  0.50000000  0.60900000  1.0
  Sr2+  Sr7  1  0.25000000  0.50000000  0.39100000  1.0
  Sr2+  Sr8  1  0.25000000  0.50000000  0.19700000  1.0
  Sr2+  Sr9  1  0.75000000  0.50000000  0.80300000  1.0
  Sr2+  Sr10  1  0.75000000  0.00000000  0.19700000  1.0
  Sr2+  Sr11  1  0.25000000  0.00000000  0.80300000  1.0
  Sr2+  Sr12  1  0.25000000  0.00000000  0.69700000  1.0
  Sr2+  Sr13  1  0.75000000  0.00000000  0.30300000  1.0
  Sr2+  Sr14  1  0.75000000  0.50000000  0.69700000  1.0
  Sr2+  Sr15  1  0.25000000  0.50000000  0.30300000  1.0
  Cu2+  Cu16  1  0.75000000  0.50000000  0.15500000  1.0
  Cu2+  Cu17  1  0.25000000  0.50000000  0.84500000  1.0
  Cu2+  Cu18  1  0.25000000  0.00000000  0.15500000  1.0
  Cu2+  Cu19  1  0.75000000  0.00000000  0.84500000  1.0
  Cu2+  Cu20  1  0.75000000  0.00000000  0.65500000  1.0
  Cu2+  Cu21  1  0.25000000  0.00000000  0.34500000  1.0
  Cu2+  Cu22  1  0.25000000  0.50000000  0.65500000  1.0
  Cu2+  Cu23  1  0.75000000  0.50000000  0.34500000  1.0
  Bi3+  Bi24  1  0.75000000  0.50000000  0.04000000  1.0
  Bi3+  Bi25  1  0.25000000  0.50000000  0.96000000  1.0
  Bi3+  Bi26  1  0.25000000  0.00000000  0.04000000  1.0
  Bi3+  Bi27  1  0.75000000  0.00000000  0.96000000  1.0
  Bi3+  Bi28  1  0.75000000  0.00000000  0.54000000  1.0
  Bi3+  Bi29  1  0.25000000  0.00000000  0.46000000  1.0
  Bi3+  Bi30  1  0.25000000  0.50000000  0.54000000  1.0
  Bi3+  Bi31  1  0.75000000  0.50000000  0.46000000  1.0
  C4+  C32  1  0.75000000  0.50000000  0.25000000  1.0
  C4+  C33  1  0.25000000  0.50000000  0.75000000  1.0
  C4+  C34  1  0.25000000  0.00000000  0.25000000  1.0
  C4+  C35  1  0.75000000  0.00000000  0.75000000  1.0
  O2-  O36  1  0.25000000  0.50000000  0.04000000  1.0
  O2-  O37  1  0.75000000  0.50000000  0.96000000  1.0
  O2-  O38  1  0.75000000  0.00000000  0.04000000  1.0
  O2-  O39  1  0.25000000  0.00000000  0.96000000  1.0
  O2-  O40  1  0.25000000  0.00000000  0.54000000  1.0
  O2-  O41  1  0.75000000  0.00000000  0.46000000  1.0
  O2-  O42  1  0.75000000  0.50000000  0.54000000  1.0
  O2-  O43  1  0.25000000  0.50000000  0.46000000  1.0
  O2-  O44  1  0.75000000  0.50000000  0.10000000  1.0
  O2-  O45  1  0.25000000  0.50000000  0.90000000  1.0
  O2-  O46  1  0.25000000  0.00000000  0.10000000  1.0
  O2-  O47  1  0.75000000  0.00000000  0.90000000  1.0
  O2-  O48  1  0.75000000  0.00000000  0.60000000  1.0
  O2-  O49  1  0.25000000  0.00000000  0.40000000  1.0
  O2-  O50  1  0.25000000  0.50000000  0.60000000  1.0
  O2-  O51  1  0.75000000  0.50000000  0.40000000  1.0
  O2-  O52  1  0.00000000  0.75000000  0.15000000  1.0
  O2-  O53  1  0.00000000  0.75000000  0.85000000  1.0
  O2-  O54  1  0.00000000  0.25000000  0.85000000  1.0
  O2-  O55  1  0.00000000  0.25000000  0.15000000  1.0
  O2-  O56  1  0.00000000  0.25000000  0.65000000  1.0
  O2-  O57  1  0.00000000  0.25000000  0.35000000  1.0
  O2-  O58  1  0.00000000  0.75000000  0.35000000  1.0
  O2-  O59  1  0.00000000  0.75000000  0.65000000  1.0
  O2-  O60  1  0.50000000  0.75000000  0.15000000  1.0
  O2-  O61  1  0.50000000  0.75000000  0.85000000  1.0
  O2-  O62  1  0.50000000  0.25000000  0.85000000  1.0
  O2-  O63  1  0.50000000  0.25000000  0.15000000  1.0
  O2-  O64  1  0.50000000  0.25000000  0.65000000  1.0
  O2-  O65  1  0.50000000  0.25000000  0.35000000  1.0
  O2-  O66  1  0.50000000  0.75000000  0.35000000  1.0
  O2-  O67  1  0.50000000  0.75000000  0.65000000  1.0
  O2-  O68  1  0.75000000  0.50000000  0.22000000  0.5
  O2-  O69  1  0.25000000  0.50000000  0.78000000  0.5
  O2-  O70  1  0.25000000  0.00000000  0.22000000  0.5
  O2-  O71  1  0.75000000  0.00000000  0.78000000  0.5
  O2-  O72  1  0.75000000  0.00000000  0.72000000  0.5
  O2-  O73  1  0.25000000  0.00000000  0.28000000  0.5
  O2-  O74  1  0.25000000  0.50000000  0.72000000  0.5
  O2-  O75  1  0.75000000  0.50000000  0.28000000  0.5
  O2-  O76  1  0.00000000  0.75000000  0.25000000  0.5
  O2-  O77  1  0.00000000  0.75000000  0.75000000  0.5
  O2-  O78  1  0.00000000  0.25000000  0.75000000  0.5
  O2-  O79  1  0.00000000  0.25000000  0.25000000  0.5
  O2-  O80  1  0.50000000  0.75000000  0.25000000  0.5
  O2-  O81  1  0.50000000  0.75000000  0.75000000  0.5
  O2-  O82  1  0.50000000  0.25000000  0.75000000  0.5
  O2-  O83  1  0.50000000  0.25000000  0.25000000  0.5
  O2-  O84  1  0.91800000  0.66800000  0.25000000  0.5
  O2-  O85  1  0.08200000  0.66800000  0.75000000  0.5
  O2-  O86  1  0.08200000  0.83200000  0.25000000  0.5
  O2-  O87  1  0.91800000  0.83200000  0.75000000  0.5
  O2-  O88  1  0.08200000  0.33200000  0.75000000  0.5
  O2-  O89  1  0.91800000  0.33200000  0.25000000  0.5
  O2-  O90  1  0.91800000  0.16800000  0.75000000  0.5
  O2-  O91  1  0.08200000  0.16800000  0.25000000  0.5
