# generated using pymatgen
data_Sr4Tl0.5Cu2Bi0.5C1O10
_symmetry_space_group_name_H-M   'P 1'
_cell_length_a   3.83090000
_cell_length_b   3.83090000
_cell_length_c   16.51800000
_cell_angle_alpha   90.00000000
_cell_angle_beta   90.00000000
_cell_angle_gamma   90.00000000
_symmetry_Int_Tables_number   1
_chemical_formula_structural   Sr4Tl0.5Cu2Bi0.5C1O10
_chemical_formula_sum   'Sr4 Tl0.5 Cu2 Bi0.5 C1 O10'
_cell_volume   242.41477867
_cell_formula_units_Z   1
loop_
 _symmetry_equiv_pos_site_id
 _symmetry_equiv_pos_as_xyz
  1  'x, y, z'
loop_
 _atom_type_symbol
 _atom_type_oxidation_number
  Sr2+  2.0
  Tl3+  3.0
  Cu2.5+  2.5
  Bi3+  3.0
  C4+  4.0
  O2-  -2.0
loop_
 _atom_site_type_symbol
 _atom_site_label
 _atom_site_symmetry_multiplicity
 _atom_site_fract_x
 _atom_site_fract_y
 _atom_site_fract_z
 _atom_site_occupancy
  Sr2+  Sr0  1  0.50000000  0.50000000  0.83920000  1.0
  Sr2+  Sr1  1  0.50000000  0.50000000  0.16080000  1.0
  Sr2+  Sr2  1  0.50000000  0.50000000  0.62670000  1.0
  Sr2+  Sr3  1  0.50000000  0.50000000  0.37330000  1.0
  Tl3+  Tl4  1  0.00000000  0.07700000  0.00000000  0.125
  Bi3+  Bi5  1  0.00000000  0.07700000  0.00000000  0.125
  Tl3+  Tl6  1  0.00000000  0.92300000  0.00000000  0.125
  Bi3+  Bi7  1  0.00000000  0.92300000  0.00000000  0.125
  Tl3+  Tl8  1  0.92300000  0.00000000  0.00000000  0.125
  Bi3+  Bi9  1  0.92300000  0.00000000  0.00000000  0.125
  Tl3+  Tl10  1  0.07700000  0.00000000  0.00000000  0.125
  Bi3+  Bi11  1  0.07700000  0.00000000  0.00000000  0.125
  Cu2.5+  Cu12  1  0.00000000  0.00000000  0.73590000  1.0
  Cu2.5+  Cu13  1  0.00000000  0.00000000  0.26410000  1.0
  C4+  C14  1  0.00000000  0.00000000  0.50000000  1.0
  O2-  O15  1  0.00000000  0.00000000  0.87500000  1.0
  O2-  O16  1  0.00000000  0.00000000  0.12500000  1.0
  O2-  O17  1  0.00000000  0.50000000  0.73200000  1.0
  O2-  O18  1  0.50000000  0.00000000  0.73200000  1.0
  O2-  O19  1  0.00000000  0.50000000  0.26800000  1.0
  O2-  O20  1  0.50000000  0.00000000  0.26800000  1.0
  O2-  O21  1  0.50000000  0.67000000  0.00000000  0.25
  O2-  O22  1  0.50000000  0.33000000  0.00000000  0.25
  O2-  O23  1  0.33000000  0.50000000  0.00000000  0.25
  O2-  O24  1  0.67000000  0.50000000  0.00000000  0.25
  O2-  O25  1  0.00000000  0.13000000  0.57400000  0.25
  O2-  O26  1  0.00000000  0.87000000  0.57400000  0.25
  O2-  O27  1  0.87000000  0.00000000  0.57400000  0.25
  O2-  O28  1  0.13000000  0.00000000  0.57400000  0.25
  O2-  O29  1  0.00000000  0.87000000  0.42600000  0.25
  O2-  O30  1  0.00000000  0.13000000  0.42600000  0.25
  O2-  O31  1  0.13000000  0.00000000  0.42600000  0.25
  O2-  O32  1  0.87000000  0.00000000  0.42600000  0.25
  O2-  O33  1  0.00000000  0.34000000  0.50000000  0.25
  O2-  O34  1  0.00000000  0.66000000  0.50000000  0.25
  O2-  O35  1  0.66000000  0.00000000  0.50000000  0.25
  O2-  O36  1  0.34000000  0.00000000  0.50000000  0.25
