# generated using pymatgen
data_K3C60N
_symmetry_space_group_name_H-M   'P 1'
_cell_length_a   14.97100000
_cell_length_b   14.89500000
_cell_length_c   13.68700000
_cell_angle_alpha   90.00000000
_cell_angle_beta   90.00000000
_cell_angle_gamma   90.00000000
_symmetry_Int_Tables_number   1
_chemical_formula_structural   K3C60N
_chemical_formula_sum   'K12 C240 N4'
_cell_volume   3052.10580691
_cell_formula_units_Z   4
loop_
 _symmetry_equiv_pos_site_id
 _symmetry_equiv_pos_as_xyz
  1  'x, y, z'
loop_
 _atom_type_symbol
 _atom_type_oxidation_number
  K0+  0.0
  C0+  0.0
  N3+  3.0
loop_
 _atom_site_type_symbol
 _atom_site_label
 _atom_site_symmetry_multiplicity
 _atom_site_fract_x
 _atom_site_fract_y
 _atom_site_fract_z
 _atom_site_occupancy
  K0+  K0  1  0.25000000  0.25000000  0.75000000  1.0
  K0+  K1  1  0.25000000  0.75000000  0.25000000  1.0
  K0+  K2  1  0.75000000  0.25000000  0.25000000  1.0
  K0+  K3  1  0.75000000  0.75000000  0.75000000  1.0
  K0+  K4  1  0.75000000  0.75000000  0.25000000  1.0
  K0+  K5  1  0.75000000  0.25000000  0.75000000  1.0
  K0+  K6  1  0.25000000  0.75000000  0.75000000  1.0
  K0+  K7  1  0.25000000  0.25000000  0.25000000  1.0
  K0+  K8  1  0.57100000  0.93700000  0.00000000  0.25
  K0+  K9  1  0.57100000  0.06300000  0.00000000  0.25
  K0+  K10  1  0.42900000  0.93700000  0.00000000  0.25
  K0+  K11  1  0.42900000  0.06300000  0.00000000  0.25
  K0+  K12  1  0.57100000  0.43700000  0.50000000  0.25
  K0+  K13  1  0.57100000  0.56300000  0.50000000  0.25
  K0+  K14  1  0.42900000  0.43700000  0.50000000  0.25
  K0+  K15  1  0.42900000  0.56300000  0.50000000  0.25
  K0+  K16  1  0.07100000  0.93700000  0.50000000  0.25
  K0+  K17  1  0.07100000  0.06300000  0.50000000  0.25
  K0+  K18  1  0.92900000  0.93700000  0.50000000  0.25
  K0+  K19  1  0.92900000  0.06300000  0.50000000  0.25
  K0+  K20  1  0.07100000  0.43700000  0.00000000  0.25
  K0+  K21  1  0.07100000  0.56300000  0.00000000  0.25
  K0+  K22  1  0.92900000  0.43700000  0.00000000  0.25
  K0+  K23  1  0.92900000  0.56300000  0.00000000  0.25
  C0+  C24  1  0.00000000  0.95320000  0.74400000  1.0
  C0+  C25  1  0.00000000  0.04680000  0.25600000  1.0
  C0+  C26  1  0.00000000  0.95320000  0.25600000  1.0
  C0+  C27  1  0.00000000  0.04680000  0.74400000  1.0
  C0+  C28  1  0.00000000  0.45320000  0.24400000  1.0
  C0+  C29  1  0.00000000  0.54680000  0.75600000  1.0
  C0+  C30  1  0.00000000  0.45320000  0.75600000  1.0
  C0+  C31  1  0.00000000  0.54680000  0.24400000  1.0
  C0+  C32  1  0.50000000  0.95320000  0.24400000  1.0
  C0+  C33  1  0.50000000  0.04680000  0.75600000  1.0
  C0+  C34  1  0.50000000  0.95320000  0.75600000  1.0
  C0+  C35  1  0.50000000  0.04680000  0.24400000  1.0
  C0+  C36  1  0.50000000  0.45320000  0.74400000  1.0
  C0+  C37  1  0.50000000  0.54680000  0.25600000  1.0
  C0+  C38  1  0.50000000  0.45320000  0.25600000  1.0
  C0+  C39  1  0.50000000  0.54680000  0.74400000  1.0
  C0+  C40  1  0.04660000  0.76700000  0.00000000  1.0
  C0+  C41  1  0.04660000  0.23300000  0.00000000  1.0
  C0+  C42  1  0.95340000  0.76700000  0.00000000  1.0
  C0+  C43  1  0.95340000  0.23300000  0.00000000  1.0
  C0+  C44  1  0.04660000  0.26700000  0.50000000  1.0
  C0+  C45  1  0.04660000  0.73300000  0.50000000  1.0
  C0+  C46  1  0.95340000  0.26700000  0.50000000  1.0
  C0+  C47  1  0.95340000  0.73300000  0.50000000  1.0
  C0+  C48  1  0.54660000  0.76700000  0.50000000  1.0
  C0+  C49  1  0.54660000  0.23300000  0.50000000  1.0
  C0+  C50  1  0.45340000  0.76700000  0.50000000  1.0
  C0+  C51  1  0.45340000  0.23300000  0.50000000  1.0
  C0+  C52  1  0.54660000  0.26700000  0.00000000  1.0
  C0+  C53  1  0.54660000  0.73300000  0.00000000  1.0
  C0+  C54  1  0.45340000  0.26700000  0.00000000  1.0
  C0+  C55  1  0.45340000  0.73300000  0.00000000  1.0
  C0+  C56  1  0.23400000  0.00000000  0.94860000  1.0
  C0+  C57  1  0.23400000  0.00000000  0.05140000  1.0
  C0+  C58  1  0.76600000  0.00000000  0.05140000  1.0
  C0+  C59  1  0.76600000  0.00000000  0.94860000  1.0
  C0+  C60  1  0.23400000  0.50000000  0.44860000  1.0
  C0+  C61  1  0.23400000  0.50000000  0.55140000  1.0
  C0+  C62  1  0.76600000  0.50000000  0.55140000  1.0
  C0+  C63  1  0.76600000  0.50000000  0.44860000  1.0
  C0+  C64  1  0.73400000  0.00000000  0.44860000  1.0
  C0+  C65  1  0.73400000  0.00000000  0.55140000  1.0
  C0+  C66  1  0.26600000  0.00000000  0.55140000  1.0
  C0+  C67  1  0.26600000  0.00000000  0.44860000  1.0
  C0+  C68  1  0.73400000  0.50000000  0.94860000  1.0
  C0+  C69  1  0.73400000  0.50000000  0.05140000  1.0
  C0+  C70  1  0.26600000  0.50000000  0.05140000  1.0
  C0+  C71  1  0.26600000  0.50000000  0.94860000  1.0
  C0+  C72  1  0.07840000  0.90510000  0.77850000  1.0
  C0+  C73  1  0.07840000  0.09490000  0.22150000  1.0
  C0+  C74  1  0.92160000  0.90510000  0.22150000  1.0
  C0+  C75  1  0.92160000  0.09490000  0.77850000  1.0
  C0+  C76  1  0.92160000  0.09490000  0.22150000  1.0
  C0+  C77  1  0.92160000  0.90510000  0.77850000  1.0
  C0+  C78  1  0.07840000  0.09490000  0.77850000  1.0
  C0+  C79  1  0.07840000  0.90510000  0.22150000  1.0
  C0+  C80  1  0.07840000  0.40510000  0.27850000  1.0
  C0+  C81  1  0.07840000  0.59490000  0.72150000  1.0
  C0+  C82  1  0.92160000  0.40510000  0.72150000  1.0
  C0+  C83  1  0.92160000  0.59490000  0.27850000  1.0
  C0+  C84  1  0.92160000  0.59490000  0.72150000  1.0
  C0+  C85  1  0.92160000  0.40510000  0.27850000  1.0
  C0+  C86  1  0.07840000  0.59490000  0.27850000  1.0
  C0+  C87  1  0.07840000  0.40510000  0.72150000  1.0
  C0+  C88  1  0.57840000  0.90510000  0.27850000  1.0
  C0+  C89  1  0.57840000  0.09490000  0.72150000  1.0
  C0+  C90  1  0.42160000  0.90510000  0.72150000  1.0
  C0+  C91  1  0.42160000  0.09490000  0.27850000  1.0
  C0+  C92  1  0.42160000  0.09490000  0.72150000  1.0
  C0+  C93  1  0.42160000  0.90510000  0.27850000  1.0
  C0+  C94  1  0.57840000  0.09490000  0.27850000  1.0
  C0+  C95  1  0.57840000  0.90510000  0.72150000  1.0
  C0+  C96  1  0.57840000  0.40510000  0.77850000  1.0
  C0+  C97  1  0.57840000  0.59490000  0.22150000  1.0
  C0+  C98  1  0.42160000  0.40510000  0.22150000  1.0
  C0+  C99  1  0.42160000  0.59490000  0.77850000  1.0
  C0+  C100  1  0.42160000  0.59490000  0.22150000  1.0
  C0+  C101  1  0.42160000  0.40510000  0.77850000  1.0
  C0+  C102  1  0.57840000  0.59490000  0.77850000  1.0
  C0+  C103  1  0.57840000  0.40510000  0.22150000  1.0
  C0+  C104  1  0.09510000  0.79770000  0.91410000  1.0
  C0+  C105  1  0.09510000  0.20230000  0.08590000  1.0
  C0+  C106  1  0.90490000  0.79770000  0.08590000  1.0
  C0+  C107  1  0.90490000  0.20230000  0.91410000  1.0
  C0+  C108  1  0.90490000  0.20230000  0.08590000  1.0
  C0+  C109  1  0.90490000  0.79770000  0.91410000  1.0
  C0+  C110  1  0.09510000  0.20230000  0.91410000  1.0
  C0+  C111  1  0.09510000  0.79770000  0.08590000  1.0
  C0+  C112  1  0.09510000  0.29770000  0.41410000  1.0
  C0+  C113  1  0.09510000  0.70230000  0.58590000  1.0
  C0+  C114  1  0.90490000  0.29770000  0.58590000  1.0
  C0+  C115  1  0.90490000  0.70230000  0.41410000  1.0
  C0+  C116  1  0.90490000  0.70230000  0.58590000  1.0
  C0+  C117  1  0.90490000  0.29770000  0.41410000  1.0
  C0+  C118  1  0.09510000  0.70230000  0.41410000  1.0
  C0+  C119  1  0.09510000  0.29770000  0.58590000  1.0
  C0+  C120  1  0.59510000  0.79770000  0.41410000  1.0
  C0+  C121  1  0.59510000  0.20230000  0.58590000  1.0
  C0+  C122  1  0.40490000  0.79770000  0.58590000  1.0
  C0+  C123  1  0.40490000  0.20230000  0.41410000  1.0
  C0+  C124  1  0.40490000  0.20230000  0.58590000  1.0
  C0+  C125  1  0.40490000  0.79770000  0.41410000  1.0
  C0+  C126  1  0.59510000  0.20230000  0.41410000  1.0
  C0+  C127  1  0.59510000  0.79770000  0.58590000  1.0
  C0+  C128  1  0.59510000  0.29770000  0.91410000  1.0
  C0+  C129  1  0.59510000  0.70230000  0.08590000  1.0
  C0+  C130  1  0.40490000  0.29770000  0.08590000  1.0
  C0+  C131  1  0.40490000  0.70230000  0.91410000  1.0
  C0+  C132  1  0.40490000  0.70230000  0.08590000  1.0
  C0+  C133  1  0.40490000  0.29770000  0.91410000  1.0
  C0+  C134  1  0.59510000  0.70230000  0.91410000  1.0
  C0+  C135  1  0.59510000  0.29770000  0.08590000  1.0
  C0+  C136  1  0.20240000  0.92150000  0.89600000  1.0
  C0+  C137  1  0.20240000  0.07850000  0.10400000  1.0
  C0+  C138  1  0.79760000  0.92150000  0.10400000  1.0
  C0+  C139  1  0.79760000  0.07850000  0.89600000  1.0
  C0+  C140  1  0.79760000  0.07850000  0.10400000  1.0
  C0+  C141  1  0.79760000  0.92150000  0.89600000  1.0
  C0+  C142  1  0.20240000  0.07850000  0.89600000  1.0
  C0+  C143  1  0.20240000  0.92150000  0.10400000  1.0
  C0+  C144  1  0.20240000  0.42150000  0.39600000  1.0
  C0+  C145  1  0.20240000  0.57850000  0.60400000  1.0
  C0+  C146  1  0.79760000  0.42150000  0.60400000  1.0
  C0+  C147  1  0.79760000  0.57850000  0.39600000  1.0
  C0+  C148  1  0.79760000  0.57850000  0.60400000  1.0
  C0+  C149  1  0.79760000  0.42150000  0.39600000  1.0
  C0+  C150  1  0.20240000  0.57850000  0.39600000  1.0
  C0+  C151  1  0.20240000  0.42150000  0.60400000  1.0
  C0+  C152  1  0.70240000  0.92150000  0.39600000  1.0
  C0+  C153  1  0.70240000  0.07850000  0.60400000  1.0
  C0+  C154  1  0.29760000  0.92150000  0.60400000  1.0
  C0+  C155  1  0.29760000  0.07850000  0.39600000  1.0
  C0+  C156  1  0.29760000  0.07850000  0.60400000  1.0
  C0+  C157  1  0.29760000  0.92150000  0.39600000  1.0
  C0+  C158  1  0.70240000  0.07850000  0.39600000  1.0
  C0+  C159  1  0.70240000  0.92150000  0.60400000  1.0
  C0+  C160  1  0.70240000  0.42150000  0.89600000  1.0
  C0+  C161  1  0.70240000  0.57850000  0.10400000  1.0
  C0+  C162  1  0.29760000  0.42150000  0.10400000  1.0
  C0+  C163  1  0.29760000  0.57850000  0.89600000  1.0
  C0+  C164  1  0.29760000  0.57850000  0.10400000  1.0
  C0+  C165  1  0.29760000  0.42150000  0.89600000  1.0
  C0+  C166  1  0.70240000  0.57850000  0.89600000  1.0
  C0+  C167  1  0.70240000  0.42150000  0.10400000  1.0
  C0+  C168  1  0.04820000  0.82760000  0.83290000  1.0
  C0+  C169  1  0.04820000  0.17240000  0.16710000  1.0
  C0+  C170  1  0.95180000  0.82760000  0.16710000  1.0
  C0+  C171  1  0.95180000  0.17240000  0.83290000  1.0
  C0+  C172  1  0.95180000  0.17240000  0.16710000  1.0
  C0+  C173  1  0.95180000  0.82760000  0.83290000  1.0
  C0+  C174  1  0.04820000  0.17240000  0.83290000  1.0
  C0+  C175  1  0.04820000  0.82760000  0.16710000  1.0
  C0+  C176  1  0.04820000  0.32760000  0.33290000  1.0
  C0+  C177  1  0.04820000  0.67240000  0.66710000  1.0
  C0+  C178  1  0.95180000  0.32760000  0.66710000  1.0
  C0+  C179  1  0.95180000  0.67240000  0.33290000  1.0
  C0+  C180  1  0.95180000  0.67240000  0.66710000  1.0
  C0+  C181  1  0.95180000  0.32760000  0.33290000  1.0
  C0+  C182  1  0.04820000  0.67240000  0.33290000  1.0
  C0+  C183  1  0.04820000  0.32760000  0.66710000  1.0
  C0+  C184  1  0.54820000  0.82760000  0.33290000  1.0
  C0+  C185  1  0.54820000  0.17240000  0.66710000  1.0
  C0+  C186  1  0.45180000  0.82760000  0.66710000  1.0
  C0+  C187  1  0.45180000  0.17240000  0.33290000  1.0
  C0+  C188  1  0.45180000  0.17240000  0.66710000  1.0
  C0+  C189  1  0.45180000  0.82760000  0.33290000  1.0
  C0+  C190  1  0.54820000  0.17240000  0.33290000  1.0
  C0+  C191  1  0.54820000  0.82760000  0.66710000  1.0
  C0+  C192  1  0.54820000  0.32760000  0.83290000  1.0
  C0+  C193  1  0.54820000  0.67240000  0.16710000  1.0
  C0+  C194  1  0.45180000  0.32760000  0.16710000  1.0
  C0+  C195  1  0.45180000  0.67240000  0.83290000  1.0
  C0+  C196  1  0.45180000  0.67240000  0.16710000  1.0
  C0+  C197  1  0.45180000  0.32760000  0.83290000  1.0
  C0+  C198  1  0.54820000  0.67240000  0.83290000  1.0
  C0+  C199  1  0.54820000  0.32760000  0.16710000  1.0
  C0+  C200  1  0.17410000  0.84580000  0.94670000  1.0
  C0+  C201  1  0.17410000  0.15420000  0.05330000  1.0
  C0+  C202  1  0.82590000  0.84580000  0.05330000  1.0
  C0+  C203  1  0.82590000  0.15420000  0.94670000  1.0
  C0+  C204  1  0.82590000  0.15420000  0.05330000  1.0
  C0+  C205  1  0.82590000  0.84580000  0.94670000  1.0
  C0+  C206  1  0.17410000  0.15420000  0.94670000  1.0
  C0+  C207  1  0.17410000  0.84580000  0.05330000  1.0
  C0+  C208  1  0.17410000  0.34580000  0.44670000  1.0
  C0+  C209  1  0.17410000  0.65420000  0.55330000  1.0
  C0+  C210  1  0.82590000  0.34580000  0.55330000  1.0
  C0+  C211  1  0.82590000  0.65420000  0.44670000  1.0
  C0+  C212  1  0.82590000  0.65420000  0.55330000  1.0
  C0+  C213  1  0.82590000  0.34580000  0.44670000  1.0
  C0+  C214  1  0.17410000  0.65420000  0.44670000  1.0
  C0+  C215  1  0.17410000  0.34580000  0.55330000  1.0
  C0+  C216  1  0.67410000  0.84580000  0.44670000  1.0
  C0+  C217  1  0.67410000  0.15420000  0.55330000  1.0
  C0+  C218  1  0.32590000  0.84580000  0.55330000  1.0
  C0+  C219  1  0.32590000  0.15420000  0.44670000  1.0
  C0+  C220  1  0.32590000  0.15420000  0.55330000  1.0
  C0+  C221  1  0.32590000  0.84580000  0.44670000  1.0
  C0+  C222  1  0.67410000  0.15420000  0.44670000  1.0
  C0+  C223  1  0.67410000  0.84580000  0.55330000  1.0
  C0+  C224  1  0.67410000  0.34580000  0.94670000  1.0
  C0+  C225  1  0.67410000  0.65420000  0.05330000  1.0
  C0+  C226  1  0.32590000  0.34580000  0.05330000  1.0
  C0+  C227  1  0.32590000  0.65420000  0.94670000  1.0
  C0+  C228  1  0.32590000  0.65420000  0.05330000  1.0
  C0+  C229  1  0.32590000  0.34580000  0.94670000  1.0
  C0+  C230  1  0.67410000  0.65420000  0.94670000  1.0
  C0+  C231  1  0.67410000  0.34580000  0.05330000  1.0
  C0+  C232  1  0.15270000  0.95190000  0.81160000  1.0
  C0+  C233  1  0.15270000  0.04810000  0.18840000  1.0
  C0+  C234  1  0.84730000  0.95190000  0.18840000  1.0
  C0+  C235  1  0.84730000  0.04810000  0.81160000  1.0
  C0+  C236  1  0.84730000  0.04810000  0.18840000  1.0
  C0+  C237  1  0.84730000  0.95190000  0.81160000  1.0
  C0+  C238  1  0.15270000  0.04810000  0.81160000  1.0
  C0+  C239  1  0.15270000  0.95190000  0.18840000  1.0
  C0+  C240  1  0.15270000  0.45190000  0.31160000  1.0
  C0+  C241  1  0.15270000  0.54810000  0.68840000  1.0
  C0+  C242  1  0.84730000  0.45190000  0.68840000  1.0
  C0+  C243  1  0.84730000  0.54810000  0.31160000  1.0
  C0+  C244  1  0.84730000  0.54810000  0.68840000  1.0
  C0+  C245  1  0.84730000  0.45190000  0.31160000  1.0
  C0+  C246  1  0.15270000  0.54810000  0.31160000  1.0
  C0+  C247  1  0.15270000  0.45190000  0.68840000  1.0
  C0+  C248  1  0.65270000  0.95190000  0.31160000  1.0
  C0+  C249  1  0.65270000  0.04810000  0.68840000  1.0
  C0+  C250  1  0.34730000  0.95190000  0.68840000  1.0
  C0+  C251  1  0.34730000  0.04810000  0.31160000  1.0
  C0+  C252  1  0.34730000  0.04810000  0.68840000  1.0
  C0+  C253  1  0.34730000  0.95190000  0.31160000  1.0
  C0+  C254  1  0.65270000  0.04810000  0.31160000  1.0
  C0+  C255  1  0.65270000  0.95190000  0.68840000  1.0
  C0+  C256  1  0.65270000  0.45190000  0.81160000  1.0
  C0+  C257  1  0.65270000  0.54810000  0.18840000  1.0
  C0+  C258  1  0.34730000  0.45190000  0.18840000  1.0
  C0+  C259  1  0.34730000  0.54810000  0.81160000  1.0
  C0+  C260  1  0.34730000  0.54810000  0.18840000  1.0
  C0+  C261  1  0.34730000  0.45190000  0.81160000  1.0
  C0+  C262  1  0.65270000  0.54810000  0.81160000  1.0
  C0+  C263  1  0.65270000  0.45190000  0.18840000  1.0
  N3+  N264  1  0.43600000  0.05200000  0.00000000  0.25
  N3+  N265  1  0.43600000  0.94800000  0.00000000  0.25
  N3+  N266  1  0.56400000  0.05200000  0.00000000  0.25
  N3+  N267  1  0.56400000  0.94800000  0.00000000  0.25
  N3+  N268  1  0.43600000  0.55200000  0.50000000  0.25
  N3+  N269  1  0.43600000  0.44800000  0.50000000  0.25
  N3+  N270  1  0.56400000  0.55200000  0.50000000  0.25
  N3+  N271  1  0.56400000  0.44800000  0.50000000  0.25
  N3+  N272  1  0.93600000  0.05200000  0.50000000  0.25
  N3+  N273  1  0.93600000  0.94800000  0.50000000  0.25
  N3+  N274  1  0.06400000  0.05200000  0.50000000  0.25
  N3+  N275  1  0.06400000  0.94800000  0.50000000  0.25
  N3+  N276  1  0.93600000  0.55200000  0.00000000  0.25
  N3+  N277  1  0.93600000  0.44800000  0.00000000  0.25
  N3+  N278  1  0.06400000  0.55200000  0.00000000  0.25
  N3+  N279  1  0.06400000  0.44800000  0.00000000  0.25
