# generated using pymatgen
data_Sr4Tl0.5Cu2Pb0.5C1O10
_symmetry_space_group_name_H-M   'P 1'
_cell_length_a   3.82440000
_cell_length_b   3.82440000
_cell_length_c   16.51600000
_cell_angle_alpha   90.00000000
_cell_angle_beta   90.00000000
_cell_angle_gamma   90.00000000
_symmetry_Int_Tables_number   1
_chemical_formula_structural   Sr4Tl0.5Cu2Pb0.5C1O10
_chemical_formula_sum   'Sr4 Tl0.5 Cu2 Pb0.5 C1 O10'
_cell_volume   241.56360001
_cell_formula_units_Z   1
loop_
 _symmetry_equiv_pos_site_id
 _symmetry_equiv_pos_as_xyz
  1  'x, y, z'
loop_
 _atom_type_symbol
 _atom_type_oxidation_number
  Sr2+  2.0
  Tl3+  3.0
  Cu2.75+  2.75
  Pb2+  2.0
  C4+  4.0
  O2-  -2.0
loop_
 _atom_site_type_symbol
 _atom_site_label
 _atom_site_symmetry_multiplicity
 _atom_site_fract_x
 _atom_site_fract_y
 _atom_site_fract_z
 _atom_site_occupancy
  Sr2+  Sr0  1  0.50000000  0.50000000  0.84040000  1.0
  Sr2+  Sr1  1  0.50000000  0.50000000  0.15960000  1.0
  Sr2+  Sr2  1  0.50000000  0.50000000  0.62750000  1.0
  Sr2+  Sr3  1  0.50000000  0.50000000  0.37250000  1.0
  Cu2.75+  Cu4  1  0.00000000  0.00000000  0.73460000  1.0
  Cu2.75+  Cu5  1  0.00000000  0.00000000  0.26540000  1.0
  Tl3+  Tl6  1  0.00000000  0.08300000  0.00000000  0.125
  Pb2+  Pb7  1  0.00000000  0.08300000  0.00000000  0.125
  Tl3+  Tl8  1  0.00000000  0.91700000  0.00000000  0.125
  Pb2+  Pb9  1  0.00000000  0.91700000  0.00000000  0.125
  Tl3+  Tl10  1  0.91700000  0.00000000  0.00000000  0.125
  Pb2+  Pb11  1  0.91700000  0.00000000  0.00000000  0.125
  Tl3+  Tl12  1  0.08300000  0.00000000  0.00000000  0.125
  Pb2+  Pb13  1  0.08300000  0.00000000  0.00000000  0.125
  C4+  C14  1  0.00000000  0.00000000  0.50000000  1.0
  O2-  O15  1  0.00000000  0.00000000  0.87900000  1.0
  O2-  O16  1  0.00000000  0.00000000  0.12100000  1.0
  O2-  O17  1  0.00000000  0.50000000  0.72300000  1.0
  O2-  O18  1  0.50000000  0.00000000  0.72300000  1.0
  O2-  O19  1  0.00000000  0.50000000  0.27700000  1.0
  O2-  O20  1  0.50000000  0.00000000  0.27700000  1.0
  O2-  O21  1  0.50000000  0.67000000  0.00000000  0.25
  O2-  O22  1  0.50000000  0.33000000  0.00000000  0.25
  O2-  O23  1  0.33000000  0.50000000  0.00000000  0.25
  O2-  O24  1  0.67000000  0.50000000  0.00000000  0.25
  O2-  O25  1  0.00000000  0.16200000  0.58600000  0.25
  O2-  O26  1  0.00000000  0.83800000  0.58600000  0.25
  O2-  O27  1  0.83800000  0.00000000  0.58600000  0.25
  O2-  O28  1  0.16200000  0.00000000  0.58600000  0.25
  O2-  O29  1  0.00000000  0.83800000  0.41400000  0.25
  O2-  O30  1  0.00000000  0.16200000  0.41400000  0.25
  O2-  O31  1  0.16200000  0.00000000  0.41400000  0.25
  O2-  O32  1  0.83800000  0.00000000  0.41400000  0.25
  O2-  O33  1  0.00000000  0.31600000  0.50000000  0.25
  O2-  O34  1  0.00000000  0.68400000  0.50000000  0.25
  O2-  O35  1  0.68400000  0.00000000  0.50000000  0.25
  O2-  O36  1  0.31600000  0.00000000  0.50000000  0.25
