# generated using pymatgen
data_Sr3.6Ce1.2Eu3.2Cu6O17.2
_symmetry_space_group_name_H-M   'P 1'
_cell_length_a   3.84048000
_cell_length_b   3.84048000
_cell_length_c   28.07480000
_cell_angle_alpha   90.00000000
_cell_angle_beta   90.00000000
_cell_angle_gamma   90.00000000
_symmetry_Int_Tables_number   1
_chemical_formula_structural   Sr3.6Ce1.2Eu3.2Cu6O17.2
_chemical_formula_sum   'Sr3.6 Ce1.2 Eu3.2 Cu6 O17.2'
_cell_volume   414.08327229
_cell_formula_units_Z   1
loop_
 _symmetry_equiv_pos_site_id
 _symmetry_equiv_pos_as_xyz
  1  'x, y, z'
loop_
 _atom_type_symbol
 _atom_type_oxidation_number
  Sr2+  2.0
  Ce4+  4.0
  Eu3+  3.0
  Cu2.133+  2.133
  O2-  -2.0
loop_
 _atom_site_type_symbol
 _atom_site_label
 _atom_site_symmetry_multiplicity
 _atom_site_fract_x
 _atom_site_fract_y
 _atom_site_fract_z
 _atom_site_occupancy
  Sr2+  Sr0  1  0.00000000  0.00000000  0.57740000  0.9
  Eu3+  Eu1  1  0.00000000  0.00000000  0.57740000  0.1
  Sr2+  Sr2  1  0.00000000  0.00000000  0.42260000  0.9
  Eu3+  Eu3  1  0.00000000  0.00000000  0.42260000  0.1
  Sr2+  Sr4  1  0.50000000  0.50000000  0.07740000  0.9
  Eu3+  Eu5  1  0.50000000  0.50000000  0.07740000  0.1
  Sr2+  Sr6  1  0.50000000  0.50000000  0.92260000  0.9
  Eu3+  Eu7  1  0.50000000  0.50000000  0.92260000  0.1
  Ce4+  Ce8  1  0.00000000  0.00000000  0.70450000  0.3
  Eu3+  Eu9  1  0.00000000  0.00000000  0.70450000  0.7
  Ce4+  Ce10  1  0.00000000  0.00000000  0.29550000  0.3
  Eu3+  Eu11  1  0.00000000  0.00000000  0.29550000  0.7
  Ce4+  Ce12  1  0.50000000  0.50000000  0.20450000  0.3
  Eu3+  Eu13  1  0.50000000  0.50000000  0.20450000  0.7
  Ce4+  Ce14  1  0.50000000  0.50000000  0.79550000  0.3
  Eu3+  Eu15  1  0.50000000  0.50000000  0.79550000  0.7
  Cu2.133+  Cu16  1  0.00000000  0.00000000  0.85930000  1.0
  Cu2.133+  Cu17  1  0.00000000  0.00000000  0.14070000  1.0
  Cu2.133+  Cu18  1  0.50000000  0.50000000  0.35930000  1.0
  Cu2.133+  Cu19  1  0.50000000  0.50000000  0.64070000  1.0
  Cu2.133+  Cu20  1  0.06700000  0.06700000  0.00000000  0.25
  Cu2.133+  Cu21  1  0.93300000  0.93300000  0.00000000  0.25
  Cu2.133+  Cu22  1  0.93300000  0.06700000  0.00000000  0.25
  Cu2.133+  Cu23  1  0.06700000  0.93300000  0.00000000  0.25
  Cu2.133+  Cu24  1  0.56700000  0.56700000  0.50000000  0.25
  Cu2.133+  Cu25  1  0.43300000  0.43300000  0.50000000  0.25
  Cu2.133+  Cu26  1  0.43300000  0.56700000  0.50000000  0.25
  Cu2.133+  Cu27  1  0.56700000  0.43300000  0.50000000  0.25
  O2-  O28  1  0.50000000  0.00000000  0.85690000  1.0
  O2-  O29  1  0.00000000  0.50000000  0.85690000  1.0
  O2-  O30  1  0.50000000  0.00000000  0.14310000  1.0
  O2-  O31  1  0.00000000  0.50000000  0.14310000  1.0
  O2-  O32  1  0.00000000  0.50000000  0.35690000  1.0
  O2-  O33  1  0.50000000  0.00000000  0.35690000  1.0
  O2-  O34  1  0.00000000  0.50000000  0.64310000  1.0
  O2-  O35  1  0.50000000  0.00000000  0.64310000  1.0
  O2-  O36  1  0.50000000  0.00000000  0.75000000  1.0
  O2-  O37  1  0.00000000  0.50000000  0.75000000  1.0
  O2-  O38  1  0.50000000  0.00000000  0.25000000  1.0
  O2-  O39  1  0.00000000  0.50000000  0.25000000  1.0
  O2-  O40  1  0.04500000  0.04500000  0.93400000  0.25
  O2-  O41  1  0.95500000  0.95500000  0.93400000  0.25
  O2-  O42  1  0.95500000  0.04500000  0.93400000  0.25
  O2-  O43  1  0.04500000  0.95500000  0.93400000  0.25
  O2-  O44  1  0.95500000  0.95500000  0.06600000  0.25
  O2-  O45  1  0.04500000  0.04500000  0.06600000  0.25
  O2-  O46  1  0.04500000  0.95500000  0.06600000  0.25
  O2-  O47  1  0.95500000  0.04500000  0.06600000  0.25
  O2-  O48  1  0.54500000  0.54500000  0.43400000  0.25
  O2-  O49  1  0.45500000  0.45500000  0.43400000  0.25
  O2-  O50  1  0.45500000  0.54500000  0.43400000  0.25
  O2-  O51  1  0.54500000  0.45500000  0.43400000  0.25
  O2-  O52  1  0.45500000  0.45500000  0.56600000  0.25
  O2-  O53  1  0.54500000  0.54500000  0.56600000  0.25
  O2-  O54  1  0.54500000  0.45500000  0.56600000  0.25
  O2-  O55  1  0.45500000  0.54500000  0.56600000  0.25
  O2-  O56  1  0.00000000  0.50000000  0.00000000  0.3
  O2-  O57  1  0.50000000  0.00000000  0.00000000  0.3
  O2-  O58  1  0.50000000  0.00000000  0.50000000  0.3
  O2-  O59  1  0.00000000  0.50000000  0.50000000  0.3
