# generated using pymatgen
data_Ba4PrY(CuO2)8
_symmetry_space_group_name_H-M   'P 1'
_cell_length_a   3.85850000
_cell_length_b   3.88540000
_cell_length_c   27.23600000
_cell_angle_alpha   90.00000000
_cell_angle_beta   90.00000000
_cell_angle_gamma   90.00000000
_symmetry_Int_Tables_number   1
_chemical_formula_structural   Ba4PrY(CuO2)8
_chemical_formula_sum   'Ba4 Pr1 Y1 Cu8 O16'
_cell_volume   408.31709785
_cell_formula_units_Z   1
loop_
 _symmetry_equiv_pos_site_id
 _symmetry_equiv_pos_as_xyz
  1  'x, y, z'
loop_
 _atom_type_symbol
 _atom_type_oxidation_number
  Ba2+  2.0
  Pr3+  3.0
  Y3+  3.0
  Cu2.25+  2.25
  O2-  -2.0
loop_
 _atom_site_type_symbol
 _atom_site_label
 _atom_site_symmetry_multiplicity
 _atom_site_fract_x
 _atom_site_fract_y
 _atom_site_fract_z
 _atom_site_occupancy
  Ba2+  Ba0  1  0.50000000  0.50000000  0.13520000  1.0
  Ba2+  Ba1  1  0.50000000  0.50000000  0.86480000  1.0
  Ba2+  Ba2  1  0.50000000  0.00000000  0.63520000  1.0
  Ba2+  Ba3  1  0.50000000  0.00000000  0.36480000  1.0
  Pr3+  Pr4  1  0.50000000  0.50000000  0.00000000  0.5
  Y3+  Y5  1  0.50000000  0.50000000  0.00000000  0.5
  Pr3+  Pr6  1  0.50000000  0.00000000  0.50000000  0.5
  Y3+  Y7  1  0.50000000  0.00000000  0.50000000  0.5
  Cu2.25+  Cu8  1  0.00000000  0.00000000  0.21300000  1.0
  Cu2.25+  Cu9  1  0.00000000  0.00000000  0.78700000  1.0
  Cu2.25+  Cu10  1  0.00000000  0.50000000  0.71300000  1.0
  Cu2.25+  Cu11  1  0.00000000  0.50000000  0.28700000  1.0
  Cu2.25+  Cu12  1  0.00000000  0.00000000  0.06310000  1.0
  Cu2.25+  Cu13  1  0.00000000  0.00000000  0.93690000  1.0
  Cu2.25+  Cu14  1  0.00000000  0.50000000  0.56310000  1.0
  Cu2.25+  Cu15  1  0.00000000  0.50000000  0.43690000  1.0
  O2-  O16  1  0.00000000  0.00000000  0.14500000  1.0
  O2-  O17  1  0.00000000  0.00000000  0.85500000  1.0
  O2-  O18  1  0.00000000  0.50000000  0.64500000  1.0
  O2-  O19  1  0.00000000  0.50000000  0.35500000  1.0
  O2-  O20  1  0.50000000  0.00000000  0.05100000  1.0
  O2-  O21  1  0.50000000  0.00000000  0.94900000  1.0
  O2-  O22  1  0.50000000  0.50000000  0.55100000  1.0
  O2-  O23  1  0.50000000  0.50000000  0.44900000  1.0
  O2-  O24  1  0.00000000  0.50000000  0.05500000  1.0
  O2-  O25  1  0.00000000  0.50000000  0.94500000  1.0
  O2-  O26  1  0.00000000  0.00000000  0.55500000  1.0
  O2-  O27  1  0.00000000  0.00000000  0.44500000  1.0
  O2-  O28  1  0.00000000  0.50000000  0.22100000  1.0
  O2-  O29  1  0.00000000  0.50000000  0.77900000  1.0
  O2-  O30  1  0.00000000  0.00000000  0.72100000  1.0
  O2-  O31  1  0.00000000  0.00000000  0.27900000  1.0
