# generated using pymatgen
data_Ba4Pr0.8Y1.2Cu8O16
_symmetry_space_group_name_H-M   'P 1'
_cell_length_a   3.85310000
_cell_length_b   3.88190000
_cell_length_c   27.22700000
_cell_angle_alpha   90.00000000
_cell_angle_beta   90.00000000
_cell_angle_gamma   90.00000000
_symmetry_Int_Tables_number   1
_chemical_formula_structural   Ba4Pr0.8Y1.2Cu8O16
_chemical_formula_sum   'Ba4 Pr0.8 Y1.2 Cu8 O16'
_cell_volume   407.24373823
_cell_formula_units_Z   1
loop_
 _symmetry_equiv_pos_site_id
 _symmetry_equiv_pos_as_xyz
  1  'x, y, z'
loop_
 _atom_type_symbol
 _atom_type_oxidation_number
  Ba2+  2.0
  Pr3+  3.0
  Y3+  3.0
  Cu2.25+  2.25
  O2-  -2.0
loop_
 _atom_site_type_symbol
 _atom_site_label
 _atom_site_symmetry_multiplicity
 _atom_site_fract_x
 _atom_site_fract_y
 _atom_site_fract_z
 _atom_site_occupancy
  Ba2+  Ba0  1  0.50000000  0.50000000  0.13520000  1.0
  Ba2+  Ba1  1  0.50000000  0.50000000  0.86480000  1.0
  Ba2+  Ba2  1  0.50000000  0.00000000  0.63520000  1.0
  Ba2+  Ba3  1  0.50000000  0.00000000  0.36480000  1.0
  Pr3+  Pr4  1  0.50000000  0.50000000  0.00000000  0.4
  Y3+  Y5  1  0.50000000  0.50000000  0.00000000  0.6
  Pr3+  Pr6  1  0.50000000  0.00000000  0.50000000  0.4
  Y3+  Y7  1  0.50000000  0.00000000  0.50000000  0.6
  Cu2.25+  Cu8  1  0.00000000  0.00000000  0.21250000  1.0
  Cu2.25+  Cu9  1  0.00000000  0.00000000  0.78750000  1.0
  Cu2.25+  Cu10  1  0.00000000  0.50000000  0.71250000  1.0
  Cu2.25+  Cu11  1  0.00000000  0.50000000  0.28750000  1.0
  Cu2.25+  Cu12  1  0.00000000  0.00000000  0.06240000  1.0
  Cu2.25+  Cu13  1  0.00000000  0.00000000  0.93760000  1.0
  Cu2.25+  Cu14  1  0.00000000  0.50000000  0.56240000  1.0
  Cu2.25+  Cu15  1  0.00000000  0.50000000  0.43760000  1.0
  O2-  O16  1  0.00000000  0.00000000  0.14400000  1.0
  O2-  O17  1  0.00000000  0.00000000  0.85600000  1.0
  O2-  O18  1  0.00000000  0.50000000  0.64400000  1.0
  O2-  O19  1  0.00000000  0.50000000  0.35600000  1.0
  O2-  O20  1  0.50000000  0.00000000  0.05200000  1.0
  O2-  O21  1  0.50000000  0.00000000  0.94800000  1.0
  O2-  O22  1  0.50000000  0.50000000  0.55200000  1.0
  O2-  O23  1  0.50000000  0.50000000  0.44800000  1.0
  O2-  O24  1  0.00000000  0.50000000  0.05500000  1.0
  O2-  O25  1  0.00000000  0.50000000  0.94500000  1.0
  O2-  O26  1  0.00000000  0.00000000  0.55500000  1.0
  O2-  O27  1  0.00000000  0.00000000  0.44500000  1.0
  O2-  O28  1  0.00000000  0.50000000  0.22100000  1.0
  O2-  O29  1  0.00000000  0.50000000  0.77900000  1.0
  O2-  O30  1  0.00000000  0.00000000  0.72100000  1.0
  O2-  O31  1  0.00000000  0.00000000  0.27900000  1.0
