# generated using pymatgen
data_Sr4Cu2Hg0.3Pb0.7C1O10
_symmetry_space_group_name_H-M   'P 1'
_cell_length_a   3.82420000
_cell_length_b   3.82420000
_cell_length_c   16.46809000
_cell_angle_alpha   90.00000000
_cell_angle_beta   90.00000000
_cell_angle_gamma   90.00000000
_symmetry_Int_Tables_number   1
_chemical_formula_structural   Sr4Cu2Hg0.3Pb0.7C1O10
_chemical_formula_sum   'Sr4 Cu2 Hg0.3 Pb0.7 C1 O10'
_cell_volume   240.83767509
_cell_formula_units_Z   1
loop_
 _symmetry_equiv_pos_site_id
 _symmetry_equiv_pos_as_xyz
  1  'x, y, z'
loop_
 _atom_type_symbol
 _atom_type_oxidation_number
  Sr2+  2.0
  Cu3+  3.0
  Hg2+  2.0
  Pb2+  2.0
  C4+  4.0
  O2-  -2.0
loop_
 _atom_site_type_symbol
 _atom_site_label
 _atom_site_symmetry_multiplicity
 _atom_site_fract_x
 _atom_site_fract_y
 _atom_site_fract_z
 _atom_site_occupancy
  Sr2+  Sr0  1  0.50000000  0.50000000  0.84170000  1.0
  Sr2+  Sr1  1  0.50000000  0.50000000  0.15830000  1.0
  Sr2+  Sr2  1  0.50000000  0.50000000  0.62670000  1.0
  Sr2+  Sr3  1  0.50000000  0.50000000  0.37330000  1.0
  Cu3+  Cu4  1  0.00000000  0.00000000  0.73690000  1.0
  Cu3+  Cu5  1  0.00000000  0.00000000  0.26310000  1.0
  Hg2+  Hg6  1  0.00000000  0.06900000  0.00000000  0.075
  Pb2+  Pb7  1  0.00000000  0.06900000  0.00000000  0.175
  Hg2+  Hg8  1  0.00000000  0.93100000  0.00000000  0.075
  Pb2+  Pb9  1  0.00000000  0.93100000  0.00000000  0.175
  Hg2+  Hg10  1  0.93100000  0.00000000  0.00000000  0.075
  Pb2+  Pb11  1  0.93100000  0.00000000  0.00000000  0.175
  Hg2+  Hg12  1  0.06900000  0.00000000  0.00000000  0.075
  Pb2+  Pb13  1  0.06900000  0.00000000  0.00000000  0.175
  C4+  C14  1  0.00000000  0.00000000  0.50000000  1.0
  O2-  O15  1  0.50000000  0.50000000  0.00000000  1.0
  O2-  O16  1  0.00000000  0.00000000  0.87700000  1.0
  O2-  O17  1  0.00000000  0.00000000  0.12300000  1.0
  O2-  O18  1  0.00000000  0.50000000  0.73000000  1.0
  O2-  O19  1  0.50000000  0.00000000  0.73000000  1.0
  O2-  O20  1  0.00000000  0.50000000  0.27000000  1.0
  O2-  O21  1  0.50000000  0.00000000  0.27000000  1.0
  O2-  O22  1  0.00000000  0.15300000  0.57200000  0.25
  O2-  O23  1  0.00000000  0.84700000  0.57200000  0.25
  O2-  O24  1  0.84700000  0.00000000  0.57200000  0.25
  O2-  O25  1  0.15300000  0.00000000  0.57200000  0.25
  O2-  O26  1  0.00000000  0.84700000  0.42800000  0.25
  O2-  O27  1  0.00000000  0.15300000  0.42800000  0.25
  O2-  O28  1  0.15300000  0.00000000  0.42800000  0.25
  O2-  O29  1  0.84700000  0.00000000  0.42800000  0.25
  O2-  O30  1  0.00000000  0.33200000  0.50000000  0.25
  O2-  O31  1  0.00000000  0.66800000  0.50000000  0.25
  O2-  O32  1  0.66800000  0.00000000  0.50000000  0.25
  O2-  O33  1  0.33200000  0.00000000  0.50000000  0.25
