# generated using pymatgen
data_Rb0.11La3.89Cu2O8
_symmetry_space_group_name_H-M   'P 1'
_cell_length_a   3.78580000
_cell_length_b   3.78580000
_cell_length_c   13.27590000
_cell_angle_alpha   90.00000000
_cell_angle_beta   90.00000000
_cell_angle_gamma   90.00000000
_symmetry_Int_Tables_number   1
_chemical_formula_structural   Rb0.11La3.89Cu2O8
_chemical_formula_sum   'Rb0.11 La3.89 Cu2 O8'
_cell_volume   190.27393782
_cell_formula_units_Z   1
loop_
 _symmetry_equiv_pos_site_id
 _symmetry_equiv_pos_as_xyz
  1  'x, y, z'
loop_
 _atom_type_symbol
 _atom_type_oxidation_number
  Rb+  1.0
  La3+  3.0
  Cu2.11+  2.11
  O2-  -2.0
loop_
 _atom_site_type_symbol
 _atom_site_label
 _atom_site_symmetry_multiplicity
 _atom_site_fract_x
 _atom_site_fract_y
 _atom_site_fract_z
 _atom_site_occupancy
  Rb+  Rb0  1  0.00000000  0.00000000  0.63974000  0.0275
  La3+  La1  1  0.00000000  0.00000000  0.63974000  0.9725
  Rb+  Rb2  1  0.00000000  0.00000000  0.36026000  0.0275
  La3+  La3  1  0.00000000  0.00000000  0.36026000  0.9725
  Rb+  Rb4  1  0.50000000  0.50000000  0.13974000  0.0275
  La3+  La5  1  0.50000000  0.50000000  0.13974000  0.9725
  Rb+  Rb6  1  0.50000000  0.50000000  0.86026000  0.0275
  La3+  La7  1  0.50000000  0.50000000  0.86026000  0.9725
  Cu2.11+  Cu8  1  0.00000000  0.00000000  0.00000000  1.0
  Cu2.11+  Cu9  1  0.50000000  0.50000000  0.50000000  1.0
  O2-  O10  1  0.50000000  0.00000000  0.00000000  1.0
  O2-  O11  1  0.00000000  0.50000000  0.00000000  1.0
  O2-  O12  1  0.00000000  0.50000000  0.50000000  1.0
  O2-  O13  1  0.50000000  0.00000000  0.50000000  1.0
  O2-  O14  1  0.00000000  0.00000000  0.81600000  1.0
  O2-  O15  1  0.00000000  0.00000000  0.18400000  1.0
  O2-  O16  1  0.50000000  0.50000000  0.31600000  1.0
  O2-  O17  1  0.50000000  0.50000000  0.68400000  1.0
