# generated using pymatgen
data_Ba4Ca0.2Y1.8Cu8O16
_symmetry_space_group_name_H-M   'P 1'
_cell_length_a   3.83890000
_cell_length_b   3.86770000
_cell_length_c   27.23900000
_cell_angle_alpha   90.00000000
_cell_angle_beta   90.00000000
_cell_angle_gamma   90.00000000
_symmetry_Int_Tables_number   1
_chemical_formula_structural   Ba4Ca0.2Y1.8Cu8O16
_chemical_formula_sum   'Ba4 Ca0.2 Y1.8 Cu8 O16'
_cell_volume   404.43686884
_cell_formula_units_Z   1
loop_
 _symmetry_equiv_pos_site_id
 _symmetry_equiv_pos_as_xyz
  1  'x, y, z'
loop_
 _atom_type_symbol
 _atom_type_oxidation_number
  Ba2+  2.0
  Ca2+  2.0
  Y3+  3.0
  Cu2.275+  2.275
  O2-  -2.0
loop_
 _atom_site_type_symbol
 _atom_site_label
 _atom_site_symmetry_multiplicity
 _atom_site_fract_x
 _atom_site_fract_y
 _atom_site_fract_z
 _atom_site_occupancy
  Ba2+  Ba0  1  0.50000000  0.50000000  0.13666000  1.0
  Ba2+  Ba1  1  0.50000000  0.50000000  0.86334000  1.0
  Ba2+  Ba2  1  0.50000000  0.00000000  0.63666000  1.0
  Ba2+  Ba3  1  0.50000000  0.00000000  0.36334000  1.0
  Ca2+  Ca4  1  0.50000000  0.50000000  0.00000000  0.1
  Y3+  Y5  1  0.50000000  0.50000000  0.00000000  0.9
  Ca2+  Ca6  1  0.50000000  0.00000000  0.50000000  0.1
  Y3+  Y7  1  0.50000000  0.00000000  0.50000000  0.9
  Cu2.275+  Cu8  1  0.00000000  0.00000000  0.21304000  1.0
  Cu2.275+  Cu9  1  0.00000000  0.00000000  0.78696000  1.0
  Cu2.275+  Cu10  1  0.00000000  0.50000000  0.71304000  1.0
  Cu2.275+  Cu11  1  0.00000000  0.50000000  0.28696000  1.0
  Cu2.275+  Cu12  1  0.00000000  0.00000000  0.06148000  1.0
  Cu2.275+  Cu13  1  0.00000000  0.00000000  0.93852000  1.0
  Cu2.275+  Cu14  1  0.00000000  0.50000000  0.56148000  1.0
  Cu2.275+  Cu15  1  0.00000000  0.50000000  0.43852000  1.0
  O2-  O16  1  0.00000000  0.00000000  0.14544000  1.0
  O2-  O17  1  0.00000000  0.00000000  0.85456000  1.0
  O2-  O18  1  0.00000000  0.50000000  0.64544000  1.0
  O2-  O19  1  0.00000000  0.50000000  0.35456000  1.0
  O2-  O20  1  0.50000000  0.00000000  0.05214000  1.0
  O2-  O21  1  0.50000000  0.00000000  0.94786000  1.0
  O2-  O22  1  0.50000000  0.50000000  0.55214000  1.0
  O2-  O23  1  0.50000000  0.50000000  0.44786000  1.0
  O2-  O24  1  0.00000000  0.50000000  0.05284000  1.0
  O2-  O25  1  0.00000000  0.50000000  0.94716000  1.0
  O2-  O26  1  0.00000000  0.00000000  0.55284000  1.0
  O2-  O27  1  0.00000000  0.00000000  0.44716000  1.0
  O2-  O28  1  0.00000000  0.50000000  0.21803000  1.0
  O2-  O29  1  0.00000000  0.50000000  0.78197000  1.0
  O2-  O30  1  0.00000000  0.00000000  0.71803000  1.0
  O2-  O31  1  0.00000000  0.00000000  0.28197000  1.0
