# generated using pymatgen
data_Sr2Y1Fe0.351Cu2.649O7.1
_symmetry_space_group_name_H-M   'P 1'
_cell_length_a   3.80390000
_cell_length_b   3.80390000
_cell_length_c   11.40070000
_cell_angle_alpha   90.00000000
_cell_angle_beta   90.00000000
_cell_angle_gamma   90.00000000
_symmetry_Int_Tables_number   1
_chemical_formula_structural   Sr2Y1Fe0.351Cu2.649O7.1
_chemical_formula_sum   'Sr2 Y1 Fe0.351 Cu2.649 O7.1'
_cell_volume   164.96419815
_cell_formula_units_Z   1
loop_
 _symmetry_equiv_pos_site_id
 _symmetry_equiv_pos_as_xyz
  1  'x, y, z'
loop_
 _atom_type_symbol
 _atom_type_oxidation_number
  Sr2+  2.0
  Y3+  3.0
  Fe3+  3.0
  Cu2.321+  2.321
  O2-  -2.0
loop_
 _atom_site_type_symbol
 _atom_site_label
 _atom_site_symmetry_multiplicity
 _atom_site_fract_x
 _atom_site_fract_y
 _atom_site_fract_z
 _atom_site_occupancy
  Sr2+  Sr0  1  0.50000000  0.50000000  0.81640000  1.0
  Sr2+  Sr1  1  0.50000000  0.50000000  0.18360000  1.0
  Y3+  Y2  1  0.50000000  0.50000000  0.50000000  1.0
  Fe3+  Fe3  1  0.00000000  0.00000000  0.00000000  0.307
  Cu2.321+  Cu4  1  0.00000000  0.00000000  0.00000000  0.693
  Fe3+  Fe5  1  0.00000000  0.00000000  0.64890000  0.022
  Cu2.321+  Cu6  1  0.00000000  0.00000000  0.64890000  0.978
  Fe3+  Fe7  1  0.00000000  0.00000000  0.35110000  0.022
  Cu2.321+  Cu8  1  0.00000000  0.00000000  0.35110000  0.978
  O2-  O9  1  0.00000000  0.50000000  0.62200000  1.0
  O2-  O10  1  0.50000000  0.00000000  0.62200000  1.0
  O2-  O11  1  0.00000000  0.50000000  0.37800000  1.0
  O2-  O12  1  0.50000000  0.00000000  0.37800000  1.0
  O2-  O13  1  0.00000000  0.00000000  0.83400000  1.0
  O2-  O14  1  0.00000000  0.00000000  0.16600000  1.0
  O2-  O15  1  0.50000000  0.00000000  0.00000000  0.55
  O2-  O16  1  0.00000000  0.50000000  0.00000000  0.55
