# generated using pymatgen
data_Ba4Ca0.04Y1.96Cu8O16
_symmetry_space_group_name_H-M   'P 1'
_cell_length_a   3.83440000
_cell_length_b   3.86400000
_cell_length_c   27.15600000
_cell_angle_alpha   90.00000000
_cell_angle_beta   90.00000000
_cell_angle_gamma   90.00000000
_symmetry_Int_Tables_number   1
_chemical_formula_structural   Ba4Ca0.04Y1.96Cu8O16
_chemical_formula_sum   'Ba4 Ca0.04 Y1.96 Cu8 O16'
_cell_volume   402.34659817
_cell_formula_units_Z   1
loop_
 _symmetry_equiv_pos_site_id
 _symmetry_equiv_pos_as_xyz
  1  'x, y, z'
loop_
 _atom_type_symbol
 _atom_type_oxidation_number
  Ba2+  2.0
  Ca2+  2.0
  Y3+  3.0
  Cu2.255+  2.255
  O2-  -2.0
loop_
 _atom_site_type_symbol
 _atom_site_label
 _atom_site_symmetry_multiplicity
 _atom_site_fract_x
 _atom_site_fract_y
 _atom_site_fract_z
 _atom_site_occupancy
  Ba2+  Ba0  1  0.50000000  0.50000000  0.13468000  1.0
  Ba2+  Ba1  1  0.50000000  0.50000000  0.86532000  1.0
  Ba2+  Ba2  1  0.50000000  0.00000000  0.63468000  1.0
  Ba2+  Ba3  1  0.50000000  0.00000000  0.36532000  1.0
  Ca2+  Ca4  1  0.50000000  0.50000000  0.00000000  0.02
  Y3+  Y5  1  0.50000000  0.50000000  0.00000000  0.98
  Ca2+  Ca6  1  0.50000000  0.00000000  0.50000000  0.02
  Y3+  Y7  1  0.50000000  0.00000000  0.50000000  0.98
  Cu2.255+  Cu8  1  0.00000000  0.00000000  0.21289000  1.0
  Cu2.255+  Cu9  1  0.00000000  0.00000000  0.78711000  1.0
  Cu2.255+  Cu10  1  0.00000000  0.50000000  0.71289000  1.0
  Cu2.255+  Cu11  1  0.00000000  0.50000000  0.28711000  1.0
  Cu2.255+  Cu12  1  0.00000000  0.00000000  0.06150000  1.0
  Cu2.255+  Cu13  1  0.00000000  0.00000000  0.93850000  1.0
  Cu2.255+  Cu14  1  0.00000000  0.50000000  0.56150000  1.0
  Cu2.255+  Cu15  1  0.00000000  0.50000000  0.43850000  1.0
  O2-  O16  1  0.00000000  0.00000000  0.14540000  1.0
  O2-  O17  1  0.00000000  0.00000000  0.85460000  1.0
  O2-  O18  1  0.00000000  0.50000000  0.64540000  1.0
  O2-  O19  1  0.00000000  0.50000000  0.35460000  1.0
  O2-  O20  1  0.50000000  0.00000000  0.05220000  1.0
  O2-  O21  1  0.50000000  0.00000000  0.94780000  1.0
  O2-  O22  1  0.50000000  0.50000000  0.55220000  1.0
  O2-  O23  1  0.50000000  0.50000000  0.44780000  1.0
  O2-  O24  1  0.00000000  0.50000000  0.05240000  1.0
  O2-  O25  1  0.00000000  0.50000000  0.94760000  1.0
  O2-  O26  1  0.00000000  0.00000000  0.55240000  1.0
  O2-  O27  1  0.00000000  0.00000000  0.44760000  1.0
  O2-  O28  1  0.00000000  0.50000000  0.21780000  1.0
  O2-  O29  1  0.00000000  0.50000000  0.78220000  1.0
  O2-  O30  1  0.00000000  0.00000000  0.71780000  1.0
  O2-  O31  1  0.00000000  0.00000000  0.28220000  1.0
