# generated using pymatgen
data_Sr0.492La7.5Cu4O16
_symmetry_space_group_name_H-M   'P 1'
_cell_length_a   5.35180000
_cell_length_b   5.35180000
_cell_length_c   13.22870000
_cell_angle_alpha   90.00000000
_cell_angle_beta   90.00000000
_cell_angle_gamma   90.00000000
_symmetry_Int_Tables_number   1
_chemical_formula_structural   Sr0.492La7.5Cu4O16
_chemical_formula_sum   'Sr0.492 La7.5 Cu4 O16'
_cell_volume   378.89329337
_cell_formula_units_Z   1
loop_
 _symmetry_equiv_pos_site_id
 _symmetry_equiv_pos_as_xyz
  1  'x, y, z'
loop_
 _atom_type_symbol
 _atom_type_oxidation_number
  Sr2+  2.0
  La3+  3.0
  Cu2.12+  2.12
  O2-  -2.0
loop_
 _atom_site_type_symbol
 _atom_site_label
 _atom_site_symmetry_multiplicity
 _atom_site_fract_x
 _atom_site_fract_y
 _atom_site_fract_z
 _atom_site_occupancy
  Sr2+  Sr0  1  0.00000000  0.00000000  0.63910000  0.0615
  La3+  La1  1  0.00000000  0.00000000  0.63910000  0.9375
  Sr2+  Sr2  1  0.00000000  0.00000000  0.36090000  0.0615
  La3+  La3  1  0.00000000  0.00000000  0.36090000  0.9375
  Sr2+  Sr4  1  0.00000000  0.50000000  0.13910000  0.0615
  La3+  La5  1  0.00000000  0.50000000  0.13910000  0.9375
  Sr2+  Sr6  1  0.00000000  0.50000000  0.86090000  0.0615
  La3+  La7  1  0.00000000  0.50000000  0.86090000  0.9375
  Sr2+  Sr8  1  0.50000000  0.00000000  0.13910000  0.0615
  La3+  La9  1  0.50000000  0.00000000  0.13910000  0.9375
  Sr2+  Sr10  1  0.50000000  0.00000000  0.86090000  0.0615
  La3+  La11  1  0.50000000  0.00000000  0.86090000  0.9375
  Sr2+  Sr12  1  0.50000000  0.50000000  0.63910000  0.0615
  La3+  La13  1  0.50000000  0.50000000  0.63910000  0.9375
  Sr2+  Sr14  1  0.50000000  0.50000000  0.36090000  0.0615
  La3+  La15  1  0.50000000  0.50000000  0.36090000  0.9375
  Cu2.12+  Cu16  1  0.00000000  0.00000000  0.00000000  1.0
  Cu2.12+  Cu17  1  0.00000000  0.50000000  0.50000000  1.0
  Cu2.12+  Cu18  1  0.50000000  0.00000000  0.50000000  1.0
  Cu2.12+  Cu19  1  0.50000000  0.50000000  0.00000000  1.0
  O2-  O20  1  0.25000000  0.75000000  0.00000000  1.0
  O2-  O21  1  0.25000000  0.25000000  0.00000000  1.0
  O2-  O22  1  0.75000000  0.75000000  0.00000000  1.0
  O2-  O23  1  0.75000000  0.25000000  0.00000000  1.0
  O2-  O24  1  0.25000000  0.25000000  0.50000000  1.0
  O2-  O25  1  0.25000000  0.75000000  0.50000000  1.0
  O2-  O26  1  0.75000000  0.25000000  0.50000000  1.0
  O2-  O27  1  0.75000000  0.75000000  0.50000000  1.0
  O2-  O28  1  0.00000000  0.00000000  0.81860000  1.0
  O2-  O29  1  0.00000000  0.00000000  0.18140000  1.0
  O2-  O30  1  0.00000000  0.50000000  0.31860000  1.0
  O2-  O31  1  0.00000000  0.50000000  0.68140000  1.0
  O2-  O32  1  0.50000000  0.00000000  0.31860000  1.0
  O2-  O33  1  0.50000000  0.00000000  0.68140000  1.0
  O2-  O34  1  0.50000000  0.50000000  0.81860000  1.0
  O2-  O35  1  0.50000000  0.50000000  0.18140000  1.0
