# generated using pymatgen
data_Y4C4I3Br
_symmetry_space_group_name_H-M   'P 1'
_cell_length_a   7.13100000
_cell_length_b   3.84700000
_cell_length_c   10.35800000
_cell_angle_alpha   90.00000000
_cell_angle_beta   93.73000000
_cell_angle_gamma   90.00000000
_symmetry_Int_Tables_number   1
_chemical_formula_structural   Y4C4I3Br
_chemical_formula_sum   'Y4 C4 I3 Br1'
_cell_volume   283.54865031
_cell_formula_units_Z   1
loop_
 _symmetry_equiv_pos_site_id
 _symmetry_equiv_pos_as_xyz
  1  'x, y, z'
loop_
 _atom_type_symbol
 _atom_type_oxidation_number
  Y3+  3.0
  C2-  -2.0
  I-  -1.0
  Br-  -1.0
loop_
 _atom_site_type_symbol
 _atom_site_label
 _atom_site_symmetry_multiplicity
 _atom_site_fract_x
 _atom_site_fract_y
 _atom_site_fract_z
 _atom_site_occupancy
  Y3+  Y0  1  0.85620000  0.00000000  0.86410000  1.0
  Y3+  Y1  1  0.14380000  0.00000000  0.13590000  1.0
  Y3+  Y2  1  0.35620000  0.50000000  0.86410000  1.0
  Y3+  Y3  1  0.64380000  0.50000000  0.13590000  1.0
  C2-  C4  1  0.58000000  0.00000000  0.96900000  1.0
  C2-  C5  1  0.42000000  0.00000000  0.03100000  1.0
  C2-  C6  1  0.08000000  0.50000000  0.96900000  1.0
  C2-  C7  1  0.92000000  0.50000000  0.03100000  1.0
  I-  I8  1  0.82670000  0.00000000  0.33350000  0.75
  Br-  Br9  1  0.82670000  0.00000000  0.33350000  0.25
  I-  I10  1  0.17330000  0.00000000  0.66650000  0.75
  Br-  Br11  1  0.17330000  0.00000000  0.66650000  0.25
  I-  I12  1  0.32670000  0.50000000  0.33350000  0.75
  Br-  Br13  1  0.32670000  0.50000000  0.33350000  0.25
  I-  I14  1  0.67330000  0.50000000  0.66650000  0.75
  Br-  Br15  1  0.67330000  0.50000000  0.66650000  0.25
