# generated using pymatgen
data_Sr0.8La5.4Sm1.8Cu4O16
_symmetry_space_group_name_H-M   'P 1'
_cell_length_a   5.31820000
_cell_length_b   5.34640000
_cell_length_c   13.12910000
_cell_angle_alpha   90.00000000
_cell_angle_beta   90.00000000
_cell_angle_gamma   90.00000000
_symmetry_Int_Tables_number   1
_chemical_formula_structural   Sr0.8La5.4Sm1.8Cu4O16
_chemical_formula_sum   'Sr0.8 La5.4 Sm1.8 Cu4 O16'
_cell_volume   373.30264752
_cell_formula_units_Z   1
loop_
 _symmetry_equiv_pos_site_id
 _symmetry_equiv_pos_as_xyz
  1  'x, y, z'
loop_
 _atom_type_symbol
 _atom_type_oxidation_number
  Sr2+  2.0
  La3+  3.0
  Sm3+  3.0
  Cu2.2+  2.2
  O2-  -2.0
loop_
 _atom_site_type_symbol
 _atom_site_label
 _atom_site_symmetry_multiplicity
 _atom_site_fract_x
 _atom_site_fract_y
 _atom_site_fract_z
 _atom_site_occupancy
  Sr2+  Sr0  1  0.00000000  0.50420000  0.13910000  0.1
  La3+  La1  1  0.00000000  0.50420000  0.13910000  0.675
  Sm3+  Sm2  1  0.00000000  0.50420000  0.13910000  0.225
  Sr2+  Sr3  1  0.00000000  0.49580000  0.86090000  0.1
  La3+  La4  1  0.00000000  0.49580000  0.86090000  0.675
  Sm3+  Sm5  1  0.00000000  0.49580000  0.86090000  0.225
  Sr2+  Sr6  1  0.00000000  0.00420000  0.36090000  0.1
  La3+  La7  1  0.00000000  0.00420000  0.36090000  0.675
  Sm3+  Sm8  1  0.00000000  0.00420000  0.36090000  0.225
  Sr2+  Sr9  1  0.00000000  0.99580000  0.63910000  0.1
  La3+  La10  1  0.00000000  0.99580000  0.63910000  0.675
  Sm3+  Sm11  1  0.00000000  0.99580000  0.63910000  0.225
  Sr2+  Sr12  1  0.50000000  0.50420000  0.63910000  0.1
  La3+  La13  1  0.50000000  0.50420000  0.63910000  0.675
  Sm3+  Sm14  1  0.50000000  0.50420000  0.63910000  0.225
  Sr2+  Sr15  1  0.50000000  0.49580000  0.36090000  0.1
  La3+  La16  1  0.50000000  0.49580000  0.36090000  0.675
  Sm3+  Sm17  1  0.50000000  0.49580000  0.36090000  0.225
  Sr2+  Sr18  1  0.50000000  0.00420000  0.86090000  0.1
  La3+  La19  1  0.50000000  0.00420000  0.86090000  0.675
  Sm3+  Sm20  1  0.50000000  0.00420000  0.86090000  0.225
  Sr2+  Sr21  1  0.50000000  0.99580000  0.13910000  0.1
  La3+  La22  1  0.50000000  0.99580000  0.13910000  0.675
  Sm3+  Sm23  1  0.50000000  0.99580000  0.13910000  0.225
  Cu2.2+  Cu24  1  0.00000000  0.50000000  0.50000000  1.0
  Cu2.2+  Cu25  1  0.00000000  0.00000000  0.00000000  1.0
  Cu2.2+  Cu26  1  0.50000000  0.50000000  0.00000000  1.0
  Cu2.2+  Cu27  1  0.50000000  0.00000000  0.50000000  1.0
  O2-  O28  1  0.75000000  0.75000000  0.49860000  1.0
  O2-  O29  1  0.75000000  0.25000000  0.50140000  1.0
  O2-  O30  1  0.75000000  0.25000000  0.00140000  1.0
  O2-  O31  1  0.75000000  0.75000000  0.99860000  1.0
  O2-  O32  1  0.25000000  0.25000000  0.50140000  1.0
  O2-  O33  1  0.25000000  0.75000000  0.49860000  1.0
  O2-  O34  1  0.25000000  0.75000000  0.99860000  1.0
  O2-  O35  1  0.25000000  0.25000000  0.00140000  1.0
  O2-  O36  1  0.00000000  0.96440000  0.18010000  1.0
  O2-  O37  1  0.00000000  0.03560000  0.81990000  1.0
  O2-  O38  1  0.00000000  0.46440000  0.31990000  1.0
  O2-  O39  1  0.00000000  0.53560000  0.68010000  1.0
  O2-  O40  1  0.50000000  0.96440000  0.68010000  1.0
  O2-  O41  1  0.50000000  0.03560000  0.31990000  1.0
  O2-  O42  1  0.50000000  0.46440000  0.81990000  1.0
  O2-  O43  1  0.50000000  0.53560000  0.18010000  1.0
