# generated using pymatgen
data_Sr6.8La1.2Cu4Bi8O24
_symmetry_space_group_name_H-M   'P 1'
_cell_length_a   5.40150000
_cell_length_b   5.37810000
_cell_length_c   24.50100000
_cell_angle_alpha   90.00000000
_cell_angle_beta   89.83000000
_cell_angle_gamma   90.00000000
_symmetry_Int_Tables_number   1
_chemical_formula_structural   Sr6.8La1.2Cu4Bi8O24
_chemical_formula_sum   'Sr6.8 La1.2 Cu4 Bi8 O24'
_cell_volume   711.74619206
_cell_formula_units_Z   1
loop_
 _symmetry_equiv_pos_site_id
 _symmetry_equiv_pos_as_xyz
  1  'x, y, z'
loop_
 _atom_type_symbol
 _atom_type_oxidation_number
  Sr2+  2.0
  La3+  3.0
  Cu1.7+  1.7
  Bi3+  3.0
  O2-  -2.0
loop_
 _atom_site_type_symbol
 _atom_site_label
 _atom_site_symmetry_multiplicity
 _atom_site_fract_x
 _atom_site_fract_y
 _atom_site_fract_z
 _atom_site_occupancy
  Sr2+  Sr0  1  0.00000000  0.25000000  0.82200000  0.85
  La3+  La1  1  0.00000000  0.25000000  0.82200000  0.15
  Sr2+  Sr2  1  0.50000000  0.75000000  0.82200000  0.85
  La3+  La3  1  0.50000000  0.75000000  0.82200000  0.15
  Sr2+  Sr4  1  0.00000000  0.75000000  0.17800000  0.85
  La3+  La5  1  0.00000000  0.75000000  0.17800000  0.15
  Sr2+  Sr6  1  0.50000000  0.25000000  0.17800000  0.85
  La3+  La7  1  0.50000000  0.25000000  0.17800000  0.15
  Sr2+  Sr8  1  0.00000000  0.75000000  0.32200000  0.85
  La3+  La9  1  0.00000000  0.75000000  0.32200000  0.15
  Sr2+  Sr10  1  0.50000000  0.25000000  0.32200000  0.85
  La3+  La11  1  0.50000000  0.25000000  0.32200000  0.15
  Sr2+  Sr12  1  0.00000000  0.25000000  0.67800000  0.85
  La3+  La13  1  0.00000000  0.25000000  0.67800000  0.15
  Sr2+  Sr14  1  0.50000000  0.75000000  0.67800000  0.85
  La3+  La15  1  0.50000000  0.75000000  0.67800000  0.15
  Cu1.7+  Cu16  1  0.50000000  0.25000000  0.75000000  1.0
  Cu1.7+  Cu17  1  0.00000000  0.75000000  0.75000000  1.0
  Cu1.7+  Cu18  1  0.50000000  0.75000000  0.25000000  1.0
  Cu1.7+  Cu19  1  0.00000000  0.25000000  0.25000000  1.0
  Bi3+  Bi20  1  0.50000000  0.27100000  0.93440000  1.0
  Bi3+  Bi21  1  0.00000000  0.72900000  0.93440000  1.0
  Bi3+  Bi22  1  0.50000000  0.72900000  0.06560000  1.0
  Bi3+  Bi23  1  0.00000000  0.27100000  0.06560000  1.0
  Bi3+  Bi24  1  0.50000000  0.77100000  0.43440000  1.0
  Bi3+  Bi25  1  0.00000000  0.22900000  0.43440000  1.0
  Bi3+  Bi26  1  0.50000000  0.22900000  0.56560000  1.0
  Bi3+  Bi27  1  0.00000000  0.77100000  0.56560000  1.0
  O2-  O28  1  0.25000000  0.50000000  0.73900000  1.0
  O2-  O29  1  0.75000000  0.50000000  0.73900000  1.0
  O2-  O30  1  0.75000000  0.50000000  0.26100000  1.0
  O2-  O31  1  0.25000000  0.50000000  0.26100000  1.0
  O2-  O32  1  0.25000000  0.00000000  0.23900000  1.0
  O2-  O33  1  0.75000000  0.00000000  0.23900000  1.0
  O2-  O34  1  0.75000000  0.00000000  0.76100000  1.0
  O2-  O35  1  0.25000000  0.00000000  0.76100000  1.0
  O2-  O36  1  0.56100000  0.24000000  0.85100000  1.0
  O2-  O37  1  0.06100000  0.76000000  0.85100000  1.0
  O2-  O38  1  0.43900000  0.76000000  0.14900000  1.0
  O2-  O39  1  0.93900000  0.24000000  0.14900000  1.0
  O2-  O40  1  0.56100000  0.74000000  0.35100000  1.0
  O2-  O41  1  0.06100000  0.26000000  0.35100000  1.0
  O2-  O42  1  0.43900000  0.26000000  0.64900000  1.0
  O2-  O43  1  0.93900000  0.74000000  0.64900000  1.0
  O2-  O44  1  0.87000000  0.36000000  0.92360000  1.0
  O2-  O45  1  0.37000000  0.64000000  0.92360000  1.0
  O2-  O46  1  0.13000000  0.64000000  0.07640000  1.0
  O2-  O47  1  0.63000000  0.36000000  0.07640000  1.0
  O2-  O48  1  0.87000000  0.86000000  0.42360000  1.0
  O2-  O49  1  0.37000000  0.14000000  0.42360000  1.0
  O2-  O50  1  0.13000000  0.14000000  0.57640000  1.0
  O2-  O51  1  0.63000000  0.86000000  0.57640000  1.0
