# generated using pymatgen
data_Sr8Ca1.6Y2.4Ga4Cu8O28
_symmetry_space_group_name_H-M   'P 1'
_cell_length_a   22.80500000
_cell_length_b   5.47170000
_cell_length_c   5.38210000
_cell_angle_alpha   90.00000000
_cell_angle_beta   90.00000000
_cell_angle_gamma   90.00000000
_symmetry_Int_Tables_number   1
_chemical_formula_structural   Sr8Ca1.6Y2.4Ga4Cu8O28
_chemical_formula_sum   'Sr8 Ca1.6 Y2.4 Ga4 Cu8 O28'
_cell_volume   671.58983998
_cell_formula_units_Z   1
loop_
 _symmetry_equiv_pos_site_id
 _symmetry_equiv_pos_as_xyz
  1  'x, y, z'
loop_
 _atom_type_symbol
 _atom_type_oxidation_number
  Sr2+  2.0
  Ca2+  2.0
  Y3+  3.0
  Ga3+  3.0
  Cu2.2+  2.2
  O2-  -2.0
loop_
 _atom_site_type_symbol
 _atom_site_label
 _atom_site_symmetry_multiplicity
 _atom_site_fract_x
 _atom_site_fract_y
 _atom_site_fract_z
 _atom_site_occupancy
  Sr2+  Sr0  1  0.84960000  0.98840000  0.00000000  1.0
  Sr2+  Sr1  1  0.15040000  0.01160000  0.00000000  1.0
  Sr2+  Sr2  1  0.65040000  0.98840000  0.00000000  1.0
  Sr2+  Sr3  1  0.34960000  0.01160000  0.00000000  1.0
  Sr2+  Sr4  1  0.34960000  0.48840000  0.50000000  1.0
  Sr2+  Sr5  1  0.65040000  0.51160000  0.50000000  1.0
  Sr2+  Sr6  1  0.15040000  0.48840000  0.50000000  1.0
  Sr2+  Sr7  1  0.84960000  0.51160000  0.50000000  1.0
  Ca2+  Ca8  1  0.00000000  0.00000000  0.00000000  0.4
  Y3+  Y9  1  0.00000000  0.00000000  0.00000000  0.6
  Ca2+  Ca10  1  0.50000000  0.00000000  0.00000000  0.4
  Y3+  Y11  1  0.50000000  0.00000000  0.00000000  0.6
  Ca2+  Ca12  1  0.50000000  0.50000000  0.50000000  0.4
  Y3+  Y13  1  0.50000000  0.50000000  0.50000000  0.6
  Ca2+  Ca14  1  0.00000000  0.50000000  0.50000000  0.4
  Y3+  Y15  1  0.00000000  0.50000000  0.50000000  0.6
  Ga3+  Ga16  1  0.25000000  0.57400000  0.04200000  1.0
  Ga3+  Ga17  1  0.75000000  0.42600000  0.04200000  1.0
  Ga3+  Ga18  1  0.75000000  0.07400000  0.54200000  1.0
  Ga3+  Ga19  1  0.25000000  0.92600000  0.54200000  1.0
  Cu2.2+  Cu20  1  0.92650000  0.00000000  0.50000000  1.0
  Cu2.2+  Cu21  1  0.07350000  0.00000000  0.50000000  1.0
  Cu2.2+  Cu22  1  0.57350000  0.00000000  0.50000000  1.0
  Cu2.2+  Cu23  1  0.42650000  0.00000000  0.50000000  1.0
  Cu2.2+  Cu24  1  0.42650000  0.50000000  0.00000000  1.0
  Cu2.2+  Cu25  1  0.57350000  0.50000000  0.00000000  1.0
  Cu2.2+  Cu26  1  0.07350000  0.50000000  0.00000000  1.0
  Cu2.2+  Cu27  1  0.92650000  0.50000000  0.00000000  1.0
  O2-  O28  1  0.75000000  0.38300000  0.39300000  1.0
  O2-  O29  1  0.25000000  0.61700000  0.39300000  1.0
  O2-  O30  1  0.25000000  0.88300000  0.89300000  1.0
  O2-  O31  1  0.75000000  0.11700000  0.89300000  1.0
  O2-  O32  1  0.93220000  0.25000000  0.25000000  1.0
  O2-  O33  1  0.06780000  0.75000000  0.25000000  1.0
  O2-  O34  1  0.56780000  0.25000000  0.25000000  1.0
  O2-  O35  1  0.43220000  0.75000000  0.25000000  1.0
  O2-  O36  1  0.43220000  0.75000000  0.75000000  1.0
  O2-  O37  1  0.56780000  0.25000000  0.75000000  1.0
  O2-  O38  1  0.06780000  0.75000000  0.75000000  1.0
  O2-  O39  1  0.93220000  0.25000000  0.75000000  1.0
  O2-  O40  1  0.93630000  0.75000000  0.75000000  1.0
  O2-  O41  1  0.06370000  0.25000000  0.75000000  1.0
  O2-  O42  1  0.56370000  0.75000000  0.75000000  1.0
  O2-  O43  1  0.43630000  0.25000000  0.75000000  1.0
  O2-  O44  1  0.43630000  0.25000000  0.25000000  1.0
  O2-  O45  1  0.56370000  0.75000000  0.25000000  1.0
  O2-  O46  1  0.06370000  0.25000000  0.25000000  1.0
  O2-  O47  1  0.93630000  0.75000000  0.25000000  1.0
  O2-  O48  1  0.82370000  0.54380000  0.98700000  1.0
  O2-  O49  1  0.17630000  0.45620000  0.98700000  1.0
  O2-  O50  1  0.67630000  0.54380000  0.98700000  1.0
  O2-  O51  1  0.32370000  0.45620000  0.98700000  1.0
  O2-  O52  1  0.32370000  0.04380000  0.48700000  1.0
  O2-  O53  1  0.67630000  0.95620000  0.48700000  1.0
  O2-  O54  1  0.17630000  0.04380000  0.48700000  1.0
  O2-  O55  1  0.82370000  0.95620000  0.48700000  1.0
