# generated using pymatgen
data_Sr8Ca1.4Y2.6Ga4Cu8O28
_symmetry_space_group_name_H-M   'P 1'
_cell_length_a   22.81500000
_cell_length_b   5.47370000
_cell_length_c   5.38430000
_cell_angle_alpha   90.00000000
_cell_angle_beta   90.00000000
_cell_angle_gamma   90.00000000
_symmetry_Int_Tables_number   1
_chemical_formula_structural   Sr8Ca1.4Y2.6Ga4Cu8O28
_chemical_formula_sum   'Sr8 Ca1.4 Y2.6 Ga4 Cu8 O28'
_cell_volume   672.40465899
_cell_formula_units_Z   1
loop_
 _symmetry_equiv_pos_site_id
 _symmetry_equiv_pos_as_xyz
  1  'x, y, z'
loop_
 _atom_type_symbol
 _atom_type_oxidation_number
  Sr2+  2.0
  Ca2+  2.0
  Y3+  3.0
  Ga3+  3.0
  Cu2.175+  2.175
  O2-  -2.0
loop_
 _atom_site_type_symbol
 _atom_site_label
 _atom_site_symmetry_multiplicity
 _atom_site_fract_x
 _atom_site_fract_y
 _atom_site_fract_z
 _atom_site_occupancy
  Sr2+  Sr0  1  0.84960000  0.98840000  0.00000000  1.0
  Sr2+  Sr1  1  0.15040000  0.01160000  0.00000000  1.0
  Sr2+  Sr2  1  0.65040000  0.98840000  0.00000000  1.0
  Sr2+  Sr3  1  0.34960000  0.01160000  0.00000000  1.0
  Sr2+  Sr4  1  0.34960000  0.48840000  0.50000000  1.0
  Sr2+  Sr5  1  0.65040000  0.51160000  0.50000000  1.0
  Sr2+  Sr6  1  0.15040000  0.48840000  0.50000000  1.0
  Sr2+  Sr7  1  0.84960000  0.51160000  0.50000000  1.0
  Ca2+  Ca8  1  0.00000000  0.00000000  0.00000000  0.35
  Y3+  Y9  1  0.00000000  0.00000000  0.00000000  0.65
  Ca2+  Ca10  1  0.50000000  0.00000000  0.00000000  0.35
  Y3+  Y11  1  0.50000000  0.00000000  0.00000000  0.65
  Ca2+  Ca12  1  0.50000000  0.50000000  0.50000000  0.35
  Y3+  Y13  1  0.50000000  0.50000000  0.50000000  0.65
  Ca2+  Ca14  1  0.00000000  0.50000000  0.50000000  0.35
  Y3+  Y15  1  0.00000000  0.50000000  0.50000000  0.65
  Ga3+  Ga16  1  0.25000000  0.57200000  0.04000000  1.0
  Ga3+  Ga17  1  0.75000000  0.42800000  0.04000000  1.0
  Ga3+  Ga18  1  0.75000000  0.07200000  0.54000000  1.0
  Ga3+  Ga19  1  0.25000000  0.92800000  0.54000000  1.0
  Cu2.175+  Cu20  1  0.92630000  0.00000000  0.50000000  1.0
  Cu2.175+  Cu21  1  0.07370000  0.00000000  0.50000000  1.0
  Cu2.175+  Cu22  1  0.57370000  0.00000000  0.50000000  1.0
  Cu2.175+  Cu23  1  0.42630000  0.00000000  0.50000000  1.0
  Cu2.175+  Cu24  1  0.42630000  0.50000000  0.00000000  1.0
  Cu2.175+  Cu25  1  0.57370000  0.50000000  0.00000000  1.0
  Cu2.175+  Cu26  1  0.07370000  0.50000000  0.00000000  1.0
  Cu2.175+  Cu27  1  0.92630000  0.50000000  0.00000000  1.0
  O2-  O28  1  0.75000000  0.38200000  0.39100000  1.0
  O2-  O29  1  0.25000000  0.61800000  0.39100000  1.0
  O2-  O30  1  0.25000000  0.88200000  0.89100000  1.0
  O2-  O31  1  0.75000000  0.11800000  0.89100000  1.0
  O2-  O32  1  0.93250000  0.25000000  0.25000000  1.0
  O2-  O33  1  0.06750000  0.75000000  0.25000000  1.0
  O2-  O34  1  0.56750000  0.25000000  0.25000000  1.0
  O2-  O35  1  0.43250000  0.75000000  0.25000000  1.0
  O2-  O36  1  0.43250000  0.75000000  0.75000000  1.0
  O2-  O37  1  0.56750000  0.25000000  0.75000000  1.0
  O2-  O38  1  0.06750000  0.75000000  0.75000000  1.0
  O2-  O39  1  0.93250000  0.25000000  0.75000000  1.0
  O2-  O40  1  0.93650000  0.75000000  0.75000000  1.0
  O2-  O41  1  0.06350000  0.25000000  0.75000000  1.0
  O2-  O42  1  0.56350000  0.75000000  0.75000000  1.0
  O2-  O43  1  0.43650000  0.25000000  0.75000000  1.0
  O2-  O44  1  0.43650000  0.25000000  0.25000000  1.0
  O2-  O45  1  0.56350000  0.75000000  0.25000000  1.0
  O2-  O46  1  0.06350000  0.25000000  0.25000000  1.0
  O2-  O47  1  0.93650000  0.75000000  0.25000000  1.0
  O2-  O48  1  0.82380000  0.54410000  0.98500000  1.0
  O2-  O49  1  0.17620000  0.45590000  0.98500000  1.0
  O2-  O50  1  0.67620000  0.54410000  0.98500000  1.0
  O2-  O51  1  0.32380000  0.45590000  0.98500000  1.0
  O2-  O52  1  0.32380000  0.04410000  0.48500000  1.0
  O2-  O53  1  0.67620000  0.95590000  0.48500000  1.0
  O2-  O54  1  0.17620000  0.04410000  0.48500000  1.0
  O2-  O55  1  0.82380000  0.95590000  0.48500000  1.0
