# generated using pymatgen
data_Ba2Ca1Cu2Hg1O6.22
_symmetry_space_group_name_H-M   'P 1'
_cell_length_a   3.85800000
_cell_length_b   3.85800000
_cell_length_c   12.68120000
_cell_angle_alpha   90.00000000
_cell_angle_beta   90.00000000
_cell_angle_gamma   90.00000000
_symmetry_Int_Tables_number   1
_chemical_formula_structural   Ba2Ca1Cu2Hg1O6.22
_chemical_formula_sum   'Ba2 Ca1 Cu2 Hg1 O6.22'
_cell_volume   188.74906052
_cell_formula_units_Z   1
loop_
 _symmetry_equiv_pos_site_id
 _symmetry_equiv_pos_as_xyz
  1  'x, y, z'
loop_
 _atom_type_symbol
 _atom_type_oxidation_number
  Ba2+  2.0
  Ca2+  2.0
  Cu2.22+  2.22
  Hg2+  2.0
  O2-  -2.0
loop_
 _atom_site_type_symbol
 _atom_site_label
 _atom_site_symmetry_multiplicity
 _atom_site_fract_x
 _atom_site_fract_y
 _atom_site_fract_z
 _atom_site_occupancy
  Ba2+  Ba0  1  0.50000000  0.50000000  0.77870000  1.0
  Ba2+  Ba1  1  0.50000000  0.50000000  0.22130000  1.0
  Ca2+  Ca2  1  0.50000000  0.50000000  0.50000000  1.0
  Cu2.22+  Cu3  1  0.00000000  0.00000000  0.62440000  1.0
  Cu2.22+  Cu4  1  0.00000000  0.00000000  0.37560000  1.0
  Hg2+  Hg5  1  0.00000000  0.00000000  0.00000000  1.0
  O2-  O6  1  0.50000000  0.00000000  0.62310000  1.0
  O2-  O7  1  0.00000000  0.50000000  0.62310000  1.0
  O2-  O8  1  0.50000000  0.00000000  0.37690000  1.0
  O2-  O9  1  0.00000000  0.50000000  0.37690000  1.0
  O2-  O10  1  0.00000000  0.00000000  0.84510000  1.0
  O2-  O11  1  0.00000000  0.00000000  0.15490000  1.0
  O2-  O12  1  0.50000000  0.50000000  0.00000000  0.22
