# generated using pymatgen
data_Ba2Ca2Cu3Hg1O8.41
_symmetry_space_group_name_H-M   'P 1'
_cell_length_a   3.85010000
_cell_length_b   3.85010000
_cell_length_c   15.78370000
_cell_angle_alpha   90.00000000
_cell_angle_beta   90.00000000
_cell_angle_gamma   90.00000000
_symmetry_Int_Tables_number   1
_chemical_formula_structural   Ba2Ca2Cu3Hg1O8.41
_chemical_formula_sum   'Ba2 Ca2 Cu3 Hg1 O8.41'
_cell_volume   233.96604686
_cell_formula_units_Z   1
loop_
 _symmetry_equiv_pos_site_id
 _symmetry_equiv_pos_as_xyz
  1  'x, y, z'
loop_
 _atom_type_symbol
 _atom_type_oxidation_number
  Ba2+  2.0
  Ca2+  2.0
  Cu2.273+  2.273
  Hg2+  2.0
  O2-  -2.0
loop_
 _atom_site_type_symbol
 _atom_site_label
 _atom_site_symmetry_multiplicity
 _atom_site_fract_x
 _atom_site_fract_y
 _atom_site_fract_z
 _atom_site_occupancy
  Ba2+  Ba0  1  0.50000000  0.50000000  0.66130000  0.41
  Ba2+  Ba1  1  0.50000000  0.50000000  0.33870000  0.41
  Ba2+  Ba2  1  0.50000000  0.50000000  0.68650000  0.59
  Ba2+  Ba3  1  0.50000000  0.50000000  0.31350000  0.59
  Ca2+  Ca4  1  0.50000000  0.50000000  0.89410000  1.0
  Ca2+  Ca5  1  0.50000000  0.50000000  0.10590000  1.0
  Cu2.273+  Cu6  1  0.00000000  0.00000000  0.00000000  1.0
  Cu2.273+  Cu7  1  0.00000000  0.00000000  0.79750000  1.0
  Cu2.273+  Cu8  1  0.00000000  0.00000000  0.20250000  1.0
  Hg2+  Hg9  1  0.00000000  0.00000000  0.50000000  1.0
  O2-  O10  1  0.00000000  0.50000000  0.00000000  1.0
  O2-  O11  1  0.50000000  0.00000000  0.00000000  1.0
  O2-  O12  1  0.00000000  0.50000000  0.80010000  1.0
  O2-  O13  1  0.50000000  0.00000000  0.80010000  1.0
  O2-  O14  1  0.00000000  0.50000000  0.19990000  1.0
  O2-  O15  1  0.50000000  0.00000000  0.19990000  1.0
  O2-  O16  1  0.00000000  0.00000000  0.62300000  1.0
  O2-  O17  1  0.00000000  0.00000000  0.37700000  1.0
  O2-  O18  1  0.50000000  0.50000000  0.50000000  0.41
