# generated using pymatgen
data_Sr2Ca0.8Tl1.2Cu2O6.862
_symmetry_space_group_name_H-M   'P 1'
_cell_length_a   3.78746000
_cell_length_b   3.78746000
_cell_length_c   12.09930000
_cell_angle_alpha   90.00000000
_cell_angle_beta   90.00000000
_cell_angle_gamma   90.00000000
_symmetry_Int_Tables_number   1
_chemical_formula_structural   Sr2Ca0.8Tl1.2Cu2O6.862
_chemical_formula_sum   'Sr2 Ca0.8 Tl1.2 Cu2 O6.862'
_cell_volume   173.56268295
_cell_formula_units_Z   1
loop_
 _symmetry_equiv_pos_site_id
 _symmetry_equiv_pos_as_xyz
  1  'x, y, z'
loop_
 _atom_type_symbol
 _atom_type_oxidation_number
  Sr2+  2.0
  Ca2+  2.0
  Tl3+  3.0
  Cu2.262+  2.262
  O2-  -2.0
loop_
 _atom_site_type_symbol
 _atom_site_label
 _atom_site_symmetry_multiplicity
 _atom_site_fract_x
 _atom_site_fract_y
 _atom_site_fract_z
 _atom_site_occupancy
  Sr2+  Sr0  1  0.50000000  0.50000000  0.71580000  1.0
  Sr2+  Sr1  1  0.50000000  0.50000000  0.28420000  1.0
  Ca2+  Ca2  1  0.50000000  0.50000000  0.00000000  0.8
  Tl3+  Tl3  1  0.50000000  0.50000000  0.00000000  0.2
  Tl3+  Tl4  1  0.08000000  0.00000000  0.50000000  0.25
  Tl3+  Tl5  1  0.92000000  0.00000000  0.50000000  0.25
  Tl3+  Tl6  1  0.00000000  0.08000000  0.50000000  0.25
  Tl3+  Tl7  1  0.00000000  0.92000000  0.50000000  0.25
  Cu2.262+  Cu8  1  0.00000000  0.00000000  0.86280000  1.0
  Cu2.262+  Cu9  1  0.00000000  0.00000000  0.13720000  1.0
  O2-  O10  1  0.50000000  0.00000000  0.87050000  1.0
  O2-  O11  1  0.00000000  0.50000000  0.87050000  1.0
  O2-  O12  1  0.50000000  0.00000000  0.12950000  1.0
  O2-  O13  1  0.00000000  0.50000000  0.12950000  1.0
  O2-  O14  1  0.00000000  0.00000000  0.66580000  1.0
  O2-  O15  1  0.00000000  0.00000000  0.33420000  1.0
  O2-  O16  1  0.50000000  0.50000000  0.50000000  0.862
