# generated using pymatgen
data_La6ZnSb15
_symmetry_space_group_name_H-M   'P 1'
_cell_length_a   15.43000000
_cell_length_b   19.46100000
_cell_length_c   4.35100000
_cell_angle_alpha   90.00000000
_cell_angle_beta   90.00000000
_cell_angle_gamma   90.00000000
_symmetry_Int_Tables_number   1
_chemical_formula_structural   La6ZnSb15
_chemical_formula_sum   'La12 Zn2 Sb30'
_cell_volume   1306.53233373
_cell_formula_units_Z   2
loop_
 _symmetry_equiv_pos_site_id
 _symmetry_equiv_pos_as_xyz
  1  'x, y, z'
loop_
 _atom_type_symbol
 _atom_type_oxidation_number
  La0+  0.0
  Zn0+  0.0
  Sb0+  0.0
loop_
 _atom_site_type_symbol
 _atom_site_label
 _atom_site_symmetry_multiplicity
 _atom_site_fract_x
 _atom_site_fract_y
 _atom_site_fract_z
 _atom_site_occupancy
  La0+  La0  1  0.13890000  0.86470000  0.10490000  1.0
  La0+  La1  1  0.86110000  0.13530000  0.10490000  1.0
  La0+  La2  1  0.86110000  0.86470000  0.10490000  1.0
  La0+  La3  1  0.13890000  0.13530000  0.10490000  1.0
  La0+  La4  1  0.63890000  0.36470000  0.60490000  1.0
  La0+  La5  1  0.36110000  0.63530000  0.60490000  1.0
  La0+  La6  1  0.36110000  0.36470000  0.60490000  1.0
  La0+  La7  1  0.63890000  0.63530000  0.60490000  1.0
  La0+  La8  1  0.00000000  0.67300000  0.10490000  1.0
  La0+  La9  1  0.00000000  0.32700000  0.10490000  1.0
  La0+  La10  1  0.50000000  0.17300000  0.60490000  1.0
  La0+  La11  1  0.50000000  0.82700000  0.60490000  1.0
  Zn0+  Zn12  1  0.25900000  0.00000000  0.10490000  0.5
  Zn0+  Zn13  1  0.74100000  0.00000000  0.10490000  0.5
  Zn0+  Zn14  1  0.75900000  0.50000000  0.60490000  0.5
  Zn0+  Zn15  1  0.24100000  0.50000000  0.60490000  0.5
  Sb0+  Sb16  1  0.21460000  0.70160000  0.10490000  1.0
  Sb0+  Sb17  1  0.78540000  0.29840000  0.10490000  1.0
  Sb0+  Sb18  1  0.78540000  0.70160000  0.10490000  1.0
  Sb0+  Sb19  1  0.21460000  0.29840000  0.10490000  1.0
  Sb0+  Sb20  1  0.71460000  0.20160000  0.60490000  1.0
  Sb0+  Sb21  1  0.28540000  0.79840000  0.60490000  1.0
  Sb0+  Sb22  1  0.28540000  0.20160000  0.60490000  1.0
  Sb0+  Sb23  1  0.71460000  0.79840000  0.60490000  1.0
  Sb0+  Sb24  1  0.35610000  0.89300000  0.10490000  1.0
  Sb0+  Sb25  1  0.64390000  0.10700000  0.10490000  1.0
  Sb0+  Sb26  1  0.64390000  0.89300000  0.10490000  1.0
  Sb0+  Sb27  1  0.35610000  0.10700000  0.10490000  1.0
  Sb0+  Sb28  1  0.85610000  0.39300000  0.60490000  1.0
  Sb0+  Sb29  1  0.14390000  0.60700000  0.60490000  1.0
  Sb0+  Sb30  1  0.14390000  0.39300000  0.60490000  1.0
  Sb0+  Sb31  1  0.85610000  0.60700000  0.60490000  1.0
  Sb0+  Sb32  1  0.00000000  0.79940000  0.60490000  1.0
  Sb0+  Sb33  1  0.00000000  0.20060000  0.60490000  1.0
  Sb0+  Sb34  1  0.50000000  0.29940000  0.10490000  1.0
  Sb0+  Sb35  1  0.50000000  0.70060000  0.10490000  1.0
  Sb0+  Sb36  1  0.15350000  0.00000000  0.60490000  1.0
  Sb0+  Sb37  1  0.84650000  0.00000000  0.60490000  1.0
  Sb0+  Sb38  1  0.65350000  0.50000000  0.10490000  1.0
  Sb0+  Sb39  1  0.34650000  0.50000000  0.10490000  1.0
  Sb0+  Sb40  1  0.40830000  0.00000000  0.60490000  1.0
  Sb0+  Sb41  1  0.59170000  0.00000000  0.60490000  1.0
  Sb0+  Sb42  1  0.90830000  0.50000000  0.10490000  1.0
  Sb0+  Sb43  1  0.09170000  0.50000000  0.10490000  1.0
  Sb0+  Sb44  1  0.00000000  0.00000000  0.00000000  1.0
  Sb0+  Sb45  1  0.50000000  0.50000000  0.50000000  1.0
