# generated using pymatgen
data_Ba2Ca0.05Y0.95Cu3O6.94
_symmetry_space_group_name_H-M   'P 1'
_cell_length_a   3.81201000
_cell_length_b   3.87915000
_cell_length_c   11.65560000
_cell_angle_alpha   90.00000000
_cell_angle_beta   90.00000000
_cell_angle_gamma   90.00000000
_symmetry_Int_Tables_number   1
_chemical_formula_structural   Ba2Ca0.05Y0.95Cu3O6.94
_chemical_formula_sum   'Ba2 Ca0.05 Y0.95 Cu3 O6.94'
_cell_volume   172.35553680
_cell_formula_units_Z   1
loop_
 _symmetry_equiv_pos_site_id
 _symmetry_equiv_pos_as_xyz
  1  'x, y, z'
loop_
 _atom_type_symbol
 _atom_type_oxidation_number
  Ba2+  2.0
  Ca2+  2.0
  Y3+  3.0
  Cu2.31+  2.31
  O2-  -2.0
loop_
 _atom_site_type_symbol
 _atom_site_label
 _atom_site_symmetry_multiplicity
 _atom_site_fract_x
 _atom_site_fract_y
 _atom_site_fract_z
 _atom_site_occupancy
  Ba2+  Ba0  1  0.50000000  0.50000000  0.18390000  1.0
  Ba2+  Ba1  1  0.50000000  0.50000000  0.81610000  1.0
  Ca2+  Ca2  1  0.50000000  0.50000000  0.50000000  0.05
  Y3+  Y3  1  0.50000000  0.50000000  0.50000000  0.95
  Cu2.31+  Cu4  1  0.00000000  0.00000000  0.00000000  1.0
  Cu2.31+  Cu5  1  0.00000000  0.00000000  0.35430000  1.0
  Cu2.31+  Cu6  1  0.00000000  0.00000000  0.64570000  1.0
  O2-  O7  1  0.00000000  0.00000000  0.15940000  1.0
  O2-  O8  1  0.00000000  0.00000000  0.84060000  1.0
  O2-  O9  1  0.50000000  0.00000000  0.37800000  1.0
  O2-  O10  1  0.50000000  0.00000000  0.62200000  1.0
  O2-  O11  1  0.00000000  0.50000000  0.37720000  1.0
  O2-  O12  1  0.00000000  0.50000000  0.62280000  1.0
  O2-  O13  1  0.50000000  0.00000000  0.00000000  0.05
  O2-  O14  1  0.00000000  0.50000000  0.00000000  0.89
