# generated using pymatgen
data_Ba2Pr0.4Y0.6Cu3O6.96
_symmetry_space_group_name_H-M   'P 1'
_cell_length_a   3.83340000
_cell_length_b   3.90340000
_cell_length_c   11.68620000
_cell_angle_alpha   90.00000000
_cell_angle_beta   90.00000000
_cell_angle_gamma   90.00000000
_symmetry_Int_Tables_number   1
_chemical_formula_structural   Ba2Pr0.4Y0.6Cu3O6.96
_chemical_formula_sum   'Ba2 Pr0.4 Y0.6 Cu3 O6.96'
_cell_volume   174.86404120
_cell_formula_units_Z   1
loop_
 _symmetry_equiv_pos_site_id
 _symmetry_equiv_pos_as_xyz
  1  'x, y, z'
loop_
 _atom_type_symbol
 _atom_type_oxidation_number
  Ba2+  2.0
  Pr3+  3.0
  Y3+  3.0
  Cu2.307+  2.307
  O2-  -2.0
loop_
 _atom_site_type_symbol
 _atom_site_label
 _atom_site_symmetry_multiplicity
 _atom_site_fract_x
 _atom_site_fract_y
 _atom_site_fract_z
 _atom_site_occupancy
  Ba2+  Ba0  1  0.50000000  0.50000000  0.18330000  1.0
  Ba2+  Ba1  1  0.50000000  0.50000000  0.81670000  1.0
  Pr3+  Pr2  1  0.50000000  0.50000000  0.50000000  0.4
  Y3+  Y3  1  0.50000000  0.50000000  0.50000000  0.6
  Cu2.307+  Cu4  1  0.00000000  0.00000000  0.00000000  1.0
  Cu2.307+  Cu5  1  0.00000000  0.00000000  0.35300000  1.0
  Cu2.307+  Cu6  1  0.00000000  0.00000000  0.64700000  1.0
  O2-  O7  1  0.50000000  0.00000000  0.37600000  1.0
  O2-  O8  1  0.50000000  0.00000000  0.62400000  1.0
  O2-  O9  1  0.00000000  0.50000000  0.37580000  1.0
  O2-  O10  1  0.00000000  0.50000000  0.62420000  1.0
  O2-  O11  1  0.00000000  0.00000000  0.15890000  1.0
  O2-  O12  1  0.00000000  0.00000000  0.84110000  1.0
  O2-  O13  1  0.00000000  0.50000000  0.00000000  0.96
