# generated using pymatgen
data_Sr2Y1Cu2.8Re0.2O7
_symmetry_space_group_name_H-M   'P 1'
_cell_length_a   3.80997000
_cell_length_b   3.80997000
_cell_length_c   11.52460000
_cell_angle_alpha   90.00000000
_cell_angle_beta   90.00000000
_cell_angle_gamma   90.00000000
_symmetry_Int_Tables_number   1
_chemical_formula_structural   Sr2Y1Cu2.8Re0.2O7
_chemical_formula_sum   'Sr2 Y1 Cu2.8 Re0.2 O7'
_cell_volume   167.28961155
_cell_formula_units_Z   1
loop_
 _symmetry_equiv_pos_site_id
 _symmetry_equiv_pos_as_xyz
  1  'x, y, z'
loop_
 _atom_type_symbol
 _atom_type_oxidation_number
  Sr2+  2.0
  Y3+  3.0
  Cu2.286+  2.286
  Re3+  3.0
  O2-  -2.0
loop_
 _atom_site_type_symbol
 _atom_site_label
 _atom_site_symmetry_multiplicity
 _atom_site_fract_x
 _atom_site_fract_y
 _atom_site_fract_z
 _atom_site_occupancy
  Sr2+  Sr0  1  0.50000000  0.50000000  0.80680000  1.0
  Sr2+  Sr1  1  0.50000000  0.50000000  0.19320000  1.0
  Y3+  Y2  1  0.50000000  0.50000000  0.50000000  1.0
  Cu2.286+  Cu3  1  0.00000000  0.00000000  0.64650000  1.0
  Cu2.286+  Cu4  1  0.00000000  0.00000000  0.35350000  1.0
  Cu2.286+  Cu5  1  0.03100000  0.03100000  0.00000000  0.2
  Re3+  Re6  1  0.03100000  0.03100000  0.00000000  0.05
  Cu2.286+  Cu7  1  0.96900000  0.96900000  0.00000000  0.2
  Re3+  Re8  1  0.96900000  0.96900000  0.00000000  0.05
  Cu2.286+  Cu9  1  0.96900000  0.03100000  0.00000000  0.2
  Re3+  Re10  1  0.96900000  0.03100000  0.00000000  0.05
  Cu2.286+  Cu11  1  0.03100000  0.96900000  0.00000000  0.2
  Re3+  Re12  1  0.03100000  0.96900000  0.00000000  0.05
  O2-  O13  1  0.00000000  0.50000000  0.62600000  1.0
  O2-  O14  1  0.50000000  0.00000000  0.62600000  1.0
  O2-  O15  1  0.00000000  0.50000000  0.37400000  1.0
  O2-  O16  1  0.50000000  0.00000000  0.37400000  1.0
  O2-  O17  1  0.50000000  0.24000000  0.00000000  0.12
  O2-  O18  1  0.50000000  0.76000000  0.00000000  0.12
  O2-  O19  1  0.76000000  0.50000000  0.00000000  0.12
  O2-  O20  1  0.24000000  0.50000000  0.00000000  0.12
  O2-  O21  1  0.50000000  0.11600000  0.00000000  0.13
  O2-  O22  1  0.50000000  0.88400000  0.00000000  0.13
  O2-  O23  1  0.88400000  0.50000000  0.00000000  0.13
  O2-  O24  1  0.11600000  0.50000000  0.00000000  0.13
  O2-  O25  1  0.02800000  0.02800000  0.84120000  0.25
  O2-  O26  1  0.97200000  0.97200000  0.84120000  0.25
  O2-  O27  1  0.97200000  0.02800000  0.84120000  0.25
  O2-  O28  1  0.02800000  0.97200000  0.84120000  0.25
  O2-  O29  1  0.97200000  0.97200000  0.15880000  0.25
  O2-  O30  1  0.02800000  0.02800000  0.15880000  0.25
  O2-  O31  1  0.02800000  0.97200000  0.15880000  0.25
  O2-  O32  1  0.97200000  0.02800000  0.15880000  0.25
