# generated using pymatgen
data_Sr2Ca2Ga(CuO3)3
_symmetry_space_group_name_H-M   'P 1'
_cell_length_a   29.35500000
_cell_length_b   5.46150000
_cell_length_c   5.40410000
_cell_angle_alpha   90.00000000
_cell_angle_beta   90.00000000
_cell_angle_gamma   90.00000000
_symmetry_Int_Tables_number   1
_chemical_formula_structural   Sr2Ca2Ga(CuO3)3
_chemical_formula_sum   'Sr8 Ca8 Ga4 Cu12 O36'
_cell_volume   866.39791706
_cell_formula_units_Z   4
loop_
 _symmetry_equiv_pos_site_id
 _symmetry_equiv_pos_as_xyz
  1  'x, y, z'
loop_
 _atom_type_symbol
 _atom_type_oxidation_number
  Sr2+  2.0
  Ca2+  2.0
  Ga3+  3.0
  Cu2.333+  2.333
  O2-  -2.0
loop_
 _atom_site_type_symbol
 _atom_site_label
 _atom_site_symmetry_multiplicity
 _atom_site_fract_x
 _atom_site_fract_y
 _atom_site_fract_z
 _atom_site_occupancy
  Sr2+  Sr0  1  0.67120000  0.51300000  0.50000000  1.0
  Sr2+  Sr1  1  0.32880000  0.48700000  0.50000000  1.0
  Sr2+  Sr2  1  0.17120000  0.48700000  0.50000000  1.0
  Sr2+  Sr3  1  0.82880000  0.51300000  0.50000000  1.0
  Sr2+  Sr4  1  0.17120000  0.01300000  0.00000000  1.0
  Sr2+  Sr5  1  0.82880000  0.98700000  0.00000000  1.0
  Sr2+  Sr6  1  0.67120000  0.98700000  0.00000000  1.0
  Sr2+  Sr7  1  0.32880000  0.01300000  0.00000000  1.0
  Ca2+  Ca8  1  0.55660000  0.49900000  0.50000000  1.0
  Ca2+  Ca9  1  0.44340000  0.50100000  0.50000000  1.0
  Ca2+  Ca10  1  0.05660000  0.50100000  0.50000000  1.0
  Ca2+  Ca11  1  0.94340000  0.49900000  0.50000000  1.0
  Ca2+  Ca12  1  0.05660000  0.99900000  0.00000000  1.0
  Ca2+  Ca13  1  0.94340000  0.00100000  0.00000000  1.0
  Ca2+  Ca14  1  0.55660000  0.00100000  0.00000000  1.0
  Ca2+  Ca15  1  0.44340000  0.99900000  0.00000000  1.0
  Ga3+  Ga16  1  0.75000000  0.42700000  0.94100000  0.5
  Ga3+  Ga17  1  0.25000000  0.57300000  0.94100000  0.5
  Ga3+  Ga18  1  0.25000000  0.57300000  0.05900000  0.5
  Ga3+  Ga19  1  0.75000000  0.42700000  0.05900000  0.5
  Ga3+  Ga20  1  0.25000000  0.92700000  0.44100000  0.5
  Ga3+  Ga21  1  0.75000000  0.07300000  0.44100000  0.5
  Ga3+  Ga22  1  0.75000000  0.07300000  0.55900000  0.5
  Ga3+  Ga23  1  0.25000000  0.92700000  0.55900000  0.5
  Cu2.333+  Cu24  1  0.61350000  0.50390000  0.00000000  1.0
  Cu2.333+  Cu25  1  0.38650000  0.49610000  0.00000000  1.0
  Cu2.333+  Cu26  1  0.11350000  0.49610000  0.00000000  1.0
  Cu2.333+  Cu27  1  0.88650000  0.50390000  0.00000000  1.0
  Cu2.333+  Cu28  1  0.11350000  0.00390000  0.50000000  1.0
  Cu2.333+  Cu29  1  0.88650000  0.99610000  0.50000000  1.0
  Cu2.333+  Cu30  1  0.61350000  0.99610000  0.50000000  1.0
  Cu2.333+  Cu31  1  0.38650000  0.00390000  0.50000000  1.0
  Cu2.333+  Cu32  1  0.50000000  0.00000000  0.50000000  1.0
  Cu2.333+  Cu33  1  0.00000000  0.00000000  0.50000000  1.0
  Cu2.333+  Cu34  1  0.00000000  0.50000000  0.00000000  1.0
  Cu2.333+  Cu35  1  0.50000000  0.50000000  0.00000000  1.0
  O2-  O36  1  0.61020000  0.25000000  0.75000000  1.0
  O2-  O37  1  0.38980000  0.75000000  0.75000000  1.0
  O2-  O38  1  0.11020000  0.75000000  0.75000000  1.0
  O2-  O39  1  0.88980000  0.25000000  0.75000000  1.0
  O2-  O40  1  0.38980000  0.75000000  0.25000000  1.0
  O2-  O41  1  0.61020000  0.25000000  0.25000000  1.0
  O2-  O42  1  0.88980000  0.25000000  0.25000000  1.0
  O2-  O43  1  0.11020000  0.75000000  0.25000000  1.0
  O2-  O44  1  0.60720000  0.75000000  0.75000000  1.0
  O2-  O45  1  0.39280000  0.25000000  0.75000000  1.0
  O2-  O46  1  0.10720000  0.25000000  0.75000000  1.0
  O2-  O47  1  0.89280000  0.75000000  0.75000000  1.0
  O2-  O48  1  0.39280000  0.25000000  0.25000000  1.0
  O2-  O49  1  0.60720000  0.75000000  0.25000000  1.0
  O2-  O50  1  0.89280000  0.75000000  0.25000000  1.0
  O2-  O51  1  0.10720000  0.25000000  0.25000000  1.0
  O2-  O52  1  0.50080000  0.25000000  0.75000000  1.0
  O2-  O53  1  0.49920000  0.75000000  0.75000000  1.0
  O2-  O54  1  0.00080000  0.75000000  0.75000000  1.0
  O2-  O55  1  0.99920000  0.25000000  0.75000000  1.0
  O2-  O56  1  0.49920000  0.75000000  0.25000000  1.0
  O2-  O57  1  0.50080000  0.25000000  0.25000000  1.0
  O2-  O58  1  0.99920000  0.25000000  0.25000000  1.0
  O2-  O59  1  0.00080000  0.75000000  0.25000000  1.0
  O2-  O60  1  0.75000000  0.38800000  0.60100000  0.5
  O2-  O61  1  0.25000000  0.61200000  0.60100000  0.5
  O2-  O62  1  0.25000000  0.61200000  0.39900000  0.5
  O2-  O63  1  0.75000000  0.38800000  0.39900000  0.5
  O2-  O64  1  0.25000000  0.88800000  0.10100000  0.5
  O2-  O65  1  0.75000000  0.11200000  0.10100000  0.5
  O2-  O66  1  0.75000000  0.11200000  0.89900000  0.5
  O2-  O67  1  0.25000000  0.88800000  0.89900000  0.5
  O2-  O68  1  0.69400000  0.98000000  0.54700000  0.5
  O2-  O69  1  0.30600000  0.02000000  0.54700000  0.5
  O2-  O70  1  0.19400000  0.02000000  0.54700000  0.5
  O2-  O71  1  0.80600000  0.98000000  0.54700000  0.5
  O2-  O72  1  0.30600000  0.02000000  0.45300000  0.5
  O2-  O73  1  0.69400000  0.98000000  0.45300000  0.5
  O2-  O74  1  0.80600000  0.98000000  0.45300000  0.5
  O2-  O75  1  0.19400000  0.02000000  0.45300000  0.5
  O2-  O76  1  0.19400000  0.48000000  0.04700000  0.5
  O2-  O77  1  0.80600000  0.52000000  0.04700000  0.5
  O2-  O78  1  0.69400000  0.52000000  0.04700000  0.5
  O2-  O79  1  0.30600000  0.48000000  0.04700000  0.5
  O2-  O80  1  0.80600000  0.52000000  0.95300000  0.5
  O2-  O81  1  0.19400000  0.48000000  0.95300000  0.5
  O2-  O82  1  0.30600000  0.48000000  0.95300000  0.5
  O2-  O83  1  0.69400000  0.52000000  0.95300000  0.5
