# generated using pymatgen
data_La8Cu4O16.38
_symmetry_space_group_name_H-M   'P 1'
_cell_length_a   5.34280000
_cell_length_b   5.40400000
_cell_length_c   13.21240000
_cell_angle_alpha   90.00000000
_cell_angle_beta   90.00000000
_cell_angle_gamma   90.00000000
_symmetry_Int_Tables_number   1
_chemical_formula_structural   La8Cu4O16.38
_chemical_formula_sum   'La8 Cu4 O16.38'
_cell_volume   381.47490273
_cell_formula_units_Z   1
loop_
 _symmetry_equiv_pos_site_id
 _symmetry_equiv_pos_as_xyz
  1  'x, y, z'
loop_
 _atom_type_symbol
 _atom_type_oxidation_number
  La3+  3.0
  Cu2.19+  2.19
  O2-  -2.0
loop_
 _atom_site_type_symbol
 _atom_site_label
 _atom_site_symmetry_multiplicity
 _atom_site_fract_x
 _atom_site_fract_y
 _atom_site_fract_z
 _atom_site_occupancy
  La3+  La0  1  0.00000000  0.49800000  0.14030000  1.0
  La3+  La1  1  0.00000000  0.50200000  0.85970000  1.0
  La3+  La2  1  0.00000000  0.99800000  0.35970000  1.0
  La3+  La3  1  0.00000000  0.00200000  0.64030000  1.0
  La3+  La4  1  0.50000000  0.49800000  0.64030000  1.0
  La3+  La5  1  0.50000000  0.50200000  0.35970000  1.0
  La3+  La6  1  0.50000000  0.99800000  0.85970000  1.0
  La3+  La7  1  0.50000000  0.00200000  0.14030000  1.0
  Cu2.19+  Cu8  1  0.00000000  0.50000000  0.50000000  1.0
  Cu2.19+  Cu9  1  0.00000000  0.00000000  0.00000000  1.0
  Cu2.19+  Cu10  1  0.50000000  0.50000000  0.00000000  1.0
  Cu2.19+  Cu11  1  0.50000000  0.00000000  0.50000000  1.0
  O2-  O12  1  0.75000000  0.75000000  0.26200000  0.0525
  O2-  O13  1  0.75000000  0.25000000  0.73800000  0.0525
  O2-  O14  1  0.75000000  0.25000000  0.23800000  0.0525
  O2-  O15  1  0.75000000  0.75000000  0.76200000  0.0525
  O2-  O16  1  0.25000000  0.25000000  0.73800000  0.0525
  O2-  O17  1  0.25000000  0.75000000  0.26200000  0.0525
  O2-  O18  1  0.25000000  0.75000000  0.76200000  0.0525
  O2-  O19  1  0.25000000  0.25000000  0.23800000  0.0525
  O2-  O20  1  0.97100000  0.59300000  0.32100000  0.0775
  O2-  O21  1  0.97100000  0.40700000  0.67900000  0.0775
  O2-  O22  1  0.97100000  0.09300000  0.17900000  0.0775
  O2-  O23  1  0.97100000  0.90700000  0.82100000  0.0775
  O2-  O24  1  0.02900000  0.40700000  0.67900000  0.0775
  O2-  O25  1  0.02900000  0.59300000  0.32100000  0.0775
  O2-  O26  1  0.02900000  0.90700000  0.82100000  0.0775
  O2-  O27  1  0.02900000  0.09300000  0.17900000  0.0775
  O2-  O28  1  0.47100000  0.59300000  0.82100000  0.0775
  O2-  O29  1  0.47100000  0.40700000  0.17900000  0.0775
  O2-  O30  1  0.47100000  0.09300000  0.67900000  0.0775
  O2-  O31  1  0.47100000  0.90700000  0.32100000  0.0775
  O2-  O32  1  0.52900000  0.40700000  0.17900000  0.0775
  O2-  O33  1  0.52900000  0.59300000  0.82100000  0.0775
  O2-  O34  1  0.52900000  0.90700000  0.32100000  0.0775
  O2-  O35  1  0.52900000  0.09300000  0.67900000  0.0775
  O2-  O36  1  0.00000000  0.48000000  0.31720000  0.845
  O2-  O37  1  0.00000000  0.52000000  0.68280000  0.845
  O2-  O38  1  0.00000000  0.98000000  0.18280000  0.845
  O2-  O39  1  0.00000000  0.02000000  0.81720000  0.845
  O2-  O40  1  0.50000000  0.48000000  0.81720000  0.845
  O2-  O41  1  0.50000000  0.52000000  0.18280000  0.845
  O2-  O42  1  0.50000000  0.98000000  0.68280000  0.845
  O2-  O43  1  0.50000000  0.02000000  0.31720000  0.845
  O2-  O44  1  0.75000000  0.75000000  0.49570000  0.995
  O2-  O45  1  0.75000000  0.25000000  0.50430000  0.995
  O2-  O46  1  0.75000000  0.25000000  0.00430000  0.995
  O2-  O47  1  0.75000000  0.75000000  0.99570000  0.995
  O2-  O48  1  0.25000000  0.25000000  0.50430000  0.995
  O2-  O49  1  0.25000000  0.75000000  0.49570000  0.995
  O2-  O50  1  0.25000000  0.75000000  0.99570000  0.995
  O2-  O51  1  0.25000000  0.25000000  0.00430000  0.995
