# generated using pymatgen
data_Ca0.48La7.52Cu4O15.92
_symmetry_space_group_name_H-M   'P 1'
_cell_length_a   5.34910000
_cell_length_b   5.34910000
_cell_length_c   13.18460000
_cell_angle_alpha   90.00000000
_cell_angle_beta   90.00000000
_cell_angle_gamma   90.00000000
_symmetry_Int_Tables_number   1
_chemical_formula_structural   Ca0.48La7.52Cu4O15.92
_chemical_formula_sum   'Ca0.48 La7.52 Cu4 O15.92'
_cell_volume   377.24925648
_cell_formula_units_Z   1
loop_
 _symmetry_equiv_pos_site_id
 _symmetry_equiv_pos_as_xyz
  1  'x, y, z'
loop_
 _atom_type_symbol
 _atom_type_oxidation_number
  Ca2+  2.0
  La3+  3.0
  Cu2.08+  2.08
  O2-  -2.0
loop_
 _atom_site_type_symbol
 _atom_site_label
 _atom_site_symmetry_multiplicity
 _atom_site_fract_x
 _atom_site_fract_y
 _atom_site_fract_z
 _atom_site_occupancy
  Ca2+  Ca0  1  0.00000000  0.00000000  0.63965000  0.06
  La3+  La1  1  0.00000000  0.00000000  0.63965000  0.94
  Ca2+  Ca2  1  0.00000000  0.00000000  0.36035000  0.06
  La3+  La3  1  0.00000000  0.00000000  0.36035000  0.94
  Ca2+  Ca4  1  0.00000000  0.50000000  0.13965000  0.06
  La3+  La5  1  0.00000000  0.50000000  0.13965000  0.94
  Ca2+  Ca6  1  0.00000000  0.50000000  0.86035000  0.06
  La3+  La7  1  0.00000000  0.50000000  0.86035000  0.94
  Ca2+  Ca8  1  0.50000000  0.00000000  0.13965000  0.06
  La3+  La9  1  0.50000000  0.00000000  0.13965000  0.94
  Ca2+  Ca10  1  0.50000000  0.00000000  0.86035000  0.06
  La3+  La11  1  0.50000000  0.00000000  0.86035000  0.94
  Ca2+  Ca12  1  0.50000000  0.50000000  0.63965000  0.06
  La3+  La13  1  0.50000000  0.50000000  0.63965000  0.94
  Ca2+  Ca14  1  0.50000000  0.50000000  0.36035000  0.06
  La3+  La15  1  0.50000000  0.50000000  0.36035000  0.94
  Cu2.08+  Cu16  1  0.00000000  0.00000000  0.00000000  1.0
  Cu2.08+  Cu17  1  0.00000000  0.50000000  0.50000000  1.0
  Cu2.08+  Cu18  1  0.50000000  0.00000000  0.50000000  1.0
  Cu2.08+  Cu19  1  0.50000000  0.50000000  0.00000000  1.0
  O2-  O20  1  0.00000000  0.00000000  0.81760000  1.0
  O2-  O21  1  0.00000000  0.00000000  0.18240000  1.0
  O2-  O22  1  0.00000000  0.50000000  0.31760000  1.0
  O2-  O23  1  0.00000000  0.50000000  0.68240000  1.0
  O2-  O24  1  0.50000000  0.00000000  0.31760000  1.0
  O2-  O25  1  0.50000000  0.00000000  0.68240000  1.0
  O2-  O26  1  0.50000000  0.50000000  0.81760000  1.0
  O2-  O27  1  0.50000000  0.50000000  0.18240000  1.0
  O2-  O28  1  0.25000000  0.75000000  0.00000000  0.99
  O2-  O29  1  0.25000000  0.25000000  0.00000000  0.99
  O2-  O30  1  0.75000000  0.75000000  0.00000000  0.99
  O2-  O31  1  0.75000000  0.25000000  0.00000000  0.99
  O2-  O32  1  0.25000000  0.25000000  0.50000000  0.99
  O2-  O33  1  0.25000000  0.75000000  0.50000000  0.99
  O2-  O34  1  0.75000000  0.25000000  0.50000000  0.99
  O2-  O35  1  0.75000000  0.75000000  0.50000000  0.99
