# generated using pymatgen
data_Ca0.32La7.68Cu4O15.96
_symmetry_space_group_name_H-M   'P 1'
_cell_length_a   5.34560000
_cell_length_b   5.36730000
_cell_length_c   13.16980000
_cell_angle_alpha   90.00000000
_cell_angle_beta   90.00000000
_cell_angle_gamma   90.00000000
_symmetry_Int_Tables_number   1
_chemical_formula_structural   Ca0.32La7.68Cu4O15.96
_chemical_formula_sum   'Ca0.32 La7.68 Cu4 O15.96'
_cell_volume   377.86051176
_cell_formula_units_Z   1
loop_
 _symmetry_equiv_pos_site_id
 _symmetry_equiv_pos_as_xyz
  1  'x, y, z'
loop_
 _atom_type_symbol
 _atom_type_oxidation_number
  Ca2+  2.0
  La3+  3.0
  Cu2.06+  2.06
  O2-  -2.0
loop_
 _atom_site_type_symbol
 _atom_site_label
 _atom_site_symmetry_multiplicity
 _atom_site_fract_x
 _atom_site_fract_y
 _atom_site_fract_z
 _atom_site_occupancy
  Ca2+  Ca0  1  0.00000000  0.50410000  0.13916000  0.04
  La3+  La1  1  0.00000000  0.50410000  0.13916000  0.96
  Ca2+  Ca2  1  0.00000000  0.49590000  0.86084000  0.04
  La3+  La3  1  0.00000000  0.49590000  0.86084000  0.96
  Ca2+  Ca4  1  0.00000000  0.00410000  0.36084000  0.04
  La3+  La5  1  0.00000000  0.00410000  0.36084000  0.96
  Ca2+  Ca6  1  0.00000000  0.99590000  0.63916000  0.04
  La3+  La7  1  0.00000000  0.99590000  0.63916000  0.96
  Ca2+  Ca8  1  0.50000000  0.50410000  0.63916000  0.04
  La3+  La9  1  0.50000000  0.50410000  0.63916000  0.96
  Ca2+  Ca10  1  0.50000000  0.49590000  0.36084000  0.04
  La3+  La11  1  0.50000000  0.49590000  0.36084000  0.96
  Ca2+  Ca12  1  0.50000000  0.00410000  0.86084000  0.04
  La3+  La13  1  0.50000000  0.00410000  0.86084000  0.96
  Ca2+  Ca14  1  0.50000000  0.99590000  0.13916000  0.04
  La3+  La15  1  0.50000000  0.99590000  0.13916000  0.96
  Cu2.06+  Cu16  1  0.00000000  0.50000000  0.50000000  1.0
  Cu2.06+  Cu17  1  0.00000000  0.00000000  0.00000000  1.0
  Cu2.06+  Cu18  1  0.50000000  0.50000000  0.00000000  1.0
  Cu2.06+  Cu19  1  0.50000000  0.00000000  0.50000000  1.0
  O2-  O20  1  0.00000000  0.47600000  0.31690000  1.0
  O2-  O21  1  0.00000000  0.52400000  0.68310000  1.0
  O2-  O22  1  0.00000000  0.97600000  0.18310000  1.0
  O2-  O23  1  0.00000000  0.02400000  0.81690000  1.0
  O2-  O24  1  0.50000000  0.47600000  0.81690000  1.0
  O2-  O25  1  0.50000000  0.52400000  0.18310000  1.0
  O2-  O26  1  0.50000000  0.97600000  0.68310000  1.0
  O2-  O27  1  0.50000000  0.02400000  0.31690000  1.0
  O2-  O28  1  0.75000000  0.75000000  0.49430000  0.995
  O2-  O29  1  0.75000000  0.25000000  0.50570000  0.995
  O2-  O30  1  0.75000000  0.25000000  0.00570000  0.995
  O2-  O31  1  0.75000000  0.75000000  0.99430000  0.995
  O2-  O32  1  0.25000000  0.25000000  0.50570000  0.995
  O2-  O33  1  0.25000000  0.75000000  0.49430000  0.995
  O2-  O34  1  0.25000000  0.75000000  0.99430000  0.995
  O2-  O35  1  0.25000000  0.25000000  0.00570000  0.995
