# generated using pymatgen
data_Ba1.5Sr0.5Y1Cu3O6.978
_symmetry_space_group_name_H-M   'P 1'
_cell_length_a   3.79976000
_cell_length_b   3.87028000
_cell_length_c   11.62145000
_cell_angle_alpha   90.00000000
_cell_angle_beta   90.00000000
_cell_angle_gamma   90.00000000
_symmetry_Int_Tables_number   1
_chemical_formula_structural   Ba1.5Sr0.5Y1Cu3O6.978
_chemical_formula_sum   'Ba1.5 Sr0.5 Y1 Cu3 O6.978'
_cell_volume   170.90661414
_cell_formula_units_Z   1
loop_
 _symmetry_equiv_pos_site_id
 _symmetry_equiv_pos_as_xyz
  1  'x, y, z'
loop_
 _atom_type_symbol
 _atom_type_oxidation_number
  Ba2+  2.0
  Sr2+  2.0
  Y3+  3.0
  Cu2.32+  2.32
  O2-  -2.0
loop_
 _atom_site_type_symbol
 _atom_site_label
 _atom_site_symmetry_multiplicity
 _atom_site_fract_x
 _atom_site_fract_y
 _atom_site_fract_z
 _atom_site_occupancy
  Ba2+  Ba0  1  0.50000000  0.50000000  0.18453000  0.75
  Sr2+  Sr1  1  0.50000000  0.50000000  0.18453000  0.25
  Ba2+  Ba2  1  0.50000000  0.50000000  0.81547000  0.75
  Sr2+  Sr3  1  0.50000000  0.50000000  0.81547000  0.25
  Y3+  Y4  1  0.50000000  0.50000000  0.50000000  1.0
  Cu2.32+  Cu5  1  0.00000000  0.00000000  0.00000000  1.0
  Cu2.32+  Cu6  1  0.00000000  0.00000000  0.35364000  1.0
  Cu2.32+  Cu7  1  0.00000000  0.00000000  0.64636000  1.0
  O2-  O8  1  0.00000000  0.00000000  0.15889000  1.0
  O2-  O9  1  0.00000000  0.00000000  0.84111000  1.0
  O2-  O10  1  0.50000000  0.00000000  0.37778000  1.0
  O2-  O11  1  0.50000000  0.00000000  0.62222000  1.0
  O2-  O12  1  0.00000000  0.50000000  0.37637000  1.0
  O2-  O13  1  0.00000000  0.50000000  0.62363000  1.0
  O2-  O14  1  0.50000000  0.00000000  0.00000000  0.044
  O2-  O15  1  0.03990000  0.50000000  0.00000000  0.467
  O2-  O16  1  0.96010000  0.50000000  0.00000000  0.467
