# generated using pymatgen
data_Sr0.348La7.652Cu4O16
_symmetry_space_group_name_H-M   'P 1'
_cell_length_a   5.35400000
_cell_length_b   13.20400000
_cell_length_c   5.37600000
_cell_angle_alpha   90.00000000
_cell_angle_beta   90.00000000
_cell_angle_gamma   90.00000000
_symmetry_Int_Tables_number   1
_chemical_formula_structural   Sr0.348La7.652Cu4O16
_chemical_formula_sum   'Sr0.348 La7.652 Cu4 O16'
_cell_volume   380.05210522
_cell_formula_units_Z   1
loop_
 _symmetry_equiv_pos_site_id
 _symmetry_equiv_pos_as_xyz
  1  'x, y, z'
loop_
 _atom_type_symbol
 _atom_type_oxidation_number
  Sr2+  2.0
  La3+  3.0
  Cu2.087+  2.087
  O2-  -2.0
loop_
 _atom_site_type_symbol
 _atom_site_label
 _atom_site_symmetry_multiplicity
 _atom_site_fract_x
 _atom_site_fract_y
 _atom_site_fract_z
 _atom_site_occupancy
  Sr2+  Sr0  1  0.00000000  0.36130000  0.99681000  0.0435
  La3+  La1  1  0.00000000  0.36130000  0.99681000  0.9565
  Sr2+  Sr2  1  0.00000000  0.63870000  0.00319000  0.0435
  La3+  La3  1  0.00000000  0.63870000  0.00319000  0.9565
  Sr2+  Sr4  1  0.00000000  0.13870000  0.49681000  0.0435
  La3+  La5  1  0.00000000  0.13870000  0.49681000  0.9565
  Sr2+  Sr6  1  0.00000000  0.86130000  0.50319000  0.0435
  La3+  La7  1  0.00000000  0.86130000  0.50319000  0.9565
  Sr2+  Sr8  1  0.50000000  0.86130000  0.99681000  0.0435
  La3+  La9  1  0.50000000  0.86130000  0.99681000  0.9565
  Sr2+  Sr10  1  0.50000000  0.13870000  0.00319000  0.0435
  La3+  La11  1  0.50000000  0.13870000  0.00319000  0.9565
  Sr2+  Sr12  1  0.50000000  0.63870000  0.49681000  0.0435
  La3+  La13  1  0.50000000  0.63870000  0.49681000  0.9565
  Sr2+  Sr14  1  0.50000000  0.36130000  0.50319000  0.0435
  La3+  La15  1  0.50000000  0.36130000  0.50319000  0.9565
  Cu2.087+  Cu16  1  0.00000000  0.50000000  0.50000000  1.0
  Cu2.087+  Cu17  1  0.00000000  0.00000000  0.00000000  1.0
  Cu2.087+  Cu18  1  0.50000000  0.00000000  0.50000000  1.0
  Cu2.087+  Cu19  1  0.50000000  0.50000000  0.00000000  1.0
  O2-  O20  1  0.75000000  0.49475000  0.75000000  1.0
  O2-  O21  1  0.75000000  0.50525000  0.25000000  1.0
  O2-  O22  1  0.75000000  0.00525000  0.25000000  1.0
  O2-  O23  1  0.75000000  0.99475000  0.75000000  1.0
  O2-  O24  1  0.25000000  0.50525000  0.25000000  1.0
  O2-  O25  1  0.25000000  0.49475000  0.75000000  1.0
  O2-  O26  1  0.25000000  0.99475000  0.75000000  1.0
  O2-  O27  1  0.25000000  0.00525000  0.25000000  1.0
  O2-  O28  1  0.00000000  0.31800000  0.53800000  1.0
  O2-  O29  1  0.00000000  0.68200000  0.46200000  1.0
  O2-  O30  1  0.00000000  0.18200000  0.03800000  1.0
  O2-  O31  1  0.00000000  0.81800000  0.96200000  1.0
  O2-  O32  1  0.50000000  0.81800000  0.53800000  1.0
  O2-  O33  1  0.50000000  0.18200000  0.46200000  1.0
  O2-  O34  1  0.50000000  0.68200000  0.03800000  1.0
  O2-  O35  1  0.50000000  0.31800000  0.96200000  1.0
