# generated using pymatgen
data_Ba1.8La0.2Y1Cu3O7
_symmetry_space_group_name_H-M   'P 1'
_cell_length_a   3.88510000
_cell_length_b   3.82210000
_cell_length_c   11.64260000
_cell_angle_alpha   90.00000000
_cell_angle_beta   90.00000000
_cell_angle_gamma   90.00000000
_symmetry_Int_Tables_number   1
_chemical_formula_structural   Ba1.8La0.2Y1Cu3O7
_chemical_formula_sum   'Ba1.8 La0.2 Y1 Cu3 O7'
_cell_volume   172.88376989
_cell_formula_units_Z   1
loop_
 _symmetry_equiv_pos_site_id
 _symmetry_equiv_pos_as_xyz
  1  'x, y, z'
loop_
 _atom_type_symbol
 _atom_type_oxidation_number
  Ba2+  2.0
  La3+  3.0
  Y3+  3.0
  Cu2.266+  2.266
  O2-  -2.0
loop_
 _atom_site_type_symbol
 _atom_site_label
 _atom_site_symmetry_multiplicity
 _atom_site_fract_x
 _atom_site_fract_y
 _atom_site_fract_z
 _atom_site_occupancy
  Ba2+  Ba0  1  0.50000000  0.50000000  0.18430000  0.9
  La3+  La1  1  0.50000000  0.50000000  0.18430000  0.1
  Ba2+  Ba2  1  0.50000000  0.50000000  0.81570000  0.9
  La3+  La3  1  0.50000000  0.50000000  0.81570000  0.1
  Y3+  Y4  1  0.50000000  0.50000000  0.50000000  1.0
  Cu2.266+  Cu5  1  0.00000000  0.00000000  0.00000000  1.0
  Cu2.266+  Cu6  1  0.00000000  0.00000000  0.35410000  1.0
  Cu2.266+  Cu7  1  0.00000000  0.00000000  0.64590000  1.0
  O2-  O8  1  0.00000000  0.00000000  0.16530000  1.0
  O2-  O9  1  0.00000000  0.00000000  0.83470000  1.0
  O2-  O10  1  0.50000000  0.00000000  0.37310000  1.0
  O2-  O11  1  0.50000000  0.00000000  0.62690000  1.0
  O2-  O12  1  0.00000000  0.50000000  0.38130000  1.0
  O2-  O13  1  0.00000000  0.50000000  0.61870000  1.0
  O2-  O14  1  0.50000000  0.00000000  0.00000000  0.5
  O2-  O15  1  0.00000000  0.50000000  0.00000000  0.5
