# generated using pymatgen
data_Ba4Y2Cu6O13.02
_symmetry_space_group_name_H-M   'P 1'
_cell_length_a   7.69000000
_cell_length_b   3.88300000
_cell_length_c   11.73700000
_cell_angle_alpha   90.00000000
_cell_angle_beta   90.00000000
_cell_angle_gamma   90.00000000
_symmetry_Int_Tables_number   1
_chemical_formula_structural   Ba4Y2Cu6O13.02
_chemical_formula_sum   'Ba4 Y2 Cu6 O13.02'
_cell_volume   350.46998899
_cell_formula_units_Z   1
loop_
 _symmetry_equiv_pos_site_id
 _symmetry_equiv_pos_as_xyz
  1  'x, y, z'
loop_
 _atom_type_symbol
 _atom_type_oxidation_number
  Ba2+  2.0
  Y3+  3.0
  Cu2.01+  2.01
  O2-  -2.0
loop_
 _atom_site_type_symbol
 _atom_site_label
 _atom_site_symmetry_multiplicity
 _atom_site_fract_x
 _atom_site_fract_y
 _atom_site_fract_z
 _atom_site_occupancy
  Ba2+  Ba0  1  0.24740000  0.50000000  0.18890000  1.0
  Ba2+  Ba1  1  0.75260000  0.50000000  0.18890000  1.0
  Ba2+  Ba2  1  0.24740000  0.50000000  0.81110000  1.0
  Ba2+  Ba3  1  0.75260000  0.50000000  0.81110000  1.0
  Y3+  Y4  1  0.25070000  0.50000000  0.50000000  1.0
  Y3+  Y5  1  0.74930000  0.50000000  0.50000000  1.0
  Cu2.01+  Cu6  1  0.00000000  0.00000000  0.00000000  1.0
  Cu2.01+  Cu7  1  0.50000000  0.00000000  0.00000000  1.0
  Cu2.01+  Cu8  1  0.00000000  0.00000000  0.35730000  1.0
  Cu2.01+  Cu9  1  0.00000000  0.00000000  0.64270000  1.0
  Cu2.01+  Cu10  1  0.50000000  0.00000000  0.35530000  1.0
  Cu2.01+  Cu11  1  0.50000000  0.00000000  0.64470000  1.0
  O2-  O12  1  0.25000000  0.00000000  0.37790000  1.0
  O2-  O13  1  0.75000000  0.00000000  0.37790000  1.0
  O2-  O14  1  0.25000000  0.00000000  0.62210000  1.0
  O2-  O15  1  0.75000000  0.00000000  0.62210000  1.0
  O2-  O16  1  0.00000000  0.50000000  0.37530000  1.0
  O2-  O17  1  0.00000000  0.50000000  0.62470000  1.0
  O2-  O18  1  0.50000000  0.50000000  0.37530000  1.0
  O2-  O19  1  0.50000000  0.50000000  0.62470000  1.0
  O2-  O20  1  0.00000000  0.00000000  0.15270000  1.0
  O2-  O21  1  0.00000000  0.00000000  0.84730000  1.0
  O2-  O22  1  0.50000000  0.00000000  0.15170000  1.0
  O2-  O23  1  0.50000000  0.00000000  0.84830000  1.0
  O2-  O24  1  0.50000000  0.50000000  0.00000000  0.28
  O2-  O25  1  0.00000000  0.50000000  0.00000000  0.74
