# generated using pymatgen
data_Ba1.5Ca0.5La1Cu3O6.96
_symmetry_space_group_name_H-M   'P 1'
_cell_length_a   3.88498000
_cell_length_b   3.88498000
_cell_length_c   11.73878000
_cell_angle_alpha   90.00000000
_cell_angle_beta   90.00000000
_cell_angle_gamma   90.00000000
_symmetry_Int_Tables_number   1
_chemical_formula_structural   Ba1.5Ca0.5La1Cu3O6.96
_chemical_formula_sum   'Ba1.5 Ca0.5 La1 Cu3 O6.96'
_cell_volume   177.17422356
_cell_formula_units_Z   1
loop_
 _symmetry_equiv_pos_site_id
 _symmetry_equiv_pos_as_xyz
  1  'x, y, z'
loop_
 _atom_type_symbol
 _atom_type_oxidation_number
  Ba2+  2.0
  Ca2+  2.0
  La3+  3.0
  Cu2.307+  2.307
  O2-  -2.0
loop_
 _atom_site_type_symbol
 _atom_site_label
 _atom_site_symmetry_multiplicity
 _atom_site_fract_x
 _atom_site_fract_y
 _atom_site_fract_z
 _atom_site_occupancy
  Ba2+  Ba0  1  0.50000000  0.50000000  0.81020000  0.75
  La3+  La1  1  0.50000000  0.50000000  0.81020000  0.25
  Ba2+  Ba2  1  0.50000000  0.50000000  0.18980000  0.75
  La3+  La3  1  0.50000000  0.50000000  0.18980000  0.25
  Ca2+  Ca4  1  0.50000000  0.50000000  0.50000000  0.5
  La3+  La5  1  0.50000000  0.50000000  0.50000000  0.5
  Cu2.307+  Cu6  1  0.00000000  0.00000000  0.00000000  1.0
  Cu2.307+  Cu7  1  0.00000000  0.00000000  0.64848000  1.0
  Cu2.307+  Cu8  1  0.00000000  0.00000000  0.35152000  1.0
  O2-  O9  1  0.00000000  0.50000000  0.63455000  1.0
  O2-  O10  1  0.50000000  0.00000000  0.63455000  1.0
  O2-  O11  1  0.00000000  0.50000000  0.36545000  1.0
  O2-  O12  1  0.50000000  0.00000000  0.36545000  1.0
  O2-  O13  1  0.00000000  0.00000000  0.84530000  1.0
  O2-  O14  1  0.00000000  0.00000000  0.15470000  1.0
  O2-  O15  1  0.00000000  0.50000000  0.00000000  0.48
  O2-  O16  1  0.50000000  0.00000000  0.00000000  0.48
