# generated using pymatgen
data_K2.4Sr1.6Bi4O12
_symmetry_space_group_name_H-M   'P 1'
_cell_length_a   5.94977000
_cell_length_b   5.94977000
_cell_length_c   8.44660000
_cell_angle_alpha   90.00000000
_cell_angle_beta   90.00000000
_cell_angle_gamma   90.00000000
_symmetry_Int_Tables_number   1
_chemical_formula_structural   K2.4Sr1.6Bi4O12
_chemical_formula_sum   'K2.4 Sr1.6 Bi4 O12'
_cell_volume   299.00763860
_cell_formula_units_Z   1
loop_
 _symmetry_equiv_pos_site_id
 _symmetry_equiv_pos_as_xyz
  1  'x, y, z'
loop_
 _atom_type_symbol
 _atom_type_oxidation_number
  K+  1.0
  Sr2+  2.0
  Bi4.6+  4.6
  O2-  -2.0
loop_
 _atom_site_type_symbol
 _atom_site_label
 _atom_site_symmetry_multiplicity
 _atom_site_fract_x
 _atom_site_fract_y
 _atom_site_fract_z
 _atom_site_occupancy
  K+  K0  1  0.50000000  0.00000000  0.25000000  0.6
  Sr2+  Sr1  1  0.50000000  0.00000000  0.25000000  0.4
  K+  K2  1  0.50000000  0.00000000  0.75000000  0.6
  Sr2+  Sr3  1  0.50000000  0.00000000  0.75000000  0.4
  K+  K4  1  0.00000000  0.50000000  0.25000000  0.6
  Sr2+  Sr5  1  0.00000000  0.50000000  0.25000000  0.4
  K+  K6  1  0.00000000  0.50000000  0.75000000  0.6
  Sr2+  Sr7  1  0.00000000  0.50000000  0.75000000  0.4
  Bi4.6+  Bi8  1  0.00000000  0.00000000  0.50000000  1.0
  Bi4.6+  Bi9  1  0.00000000  0.00000000  0.00000000  1.0
  Bi4.6+  Bi10  1  0.50000000  0.50000000  0.00000000  1.0
  Bi4.6+  Bi11  1  0.50000000  0.50000000  0.50000000  1.0
  O2-  O12  1  0.00000000  0.00000000  0.25000000  1.0
  O2-  O13  1  0.00000000  0.00000000  0.75000000  1.0
  O2-  O14  1  0.50000000  0.50000000  0.75000000  1.0
  O2-  O15  1  0.50000000  0.50000000  0.25000000  1.0
  O2-  O16  1  0.73100000  0.23100000  0.50000000  1.0
  O2-  O17  1  0.26900000  0.76900000  0.50000000  1.0
  O2-  O18  1  0.26900000  0.23100000  0.00000000  1.0
  O2-  O19  1  0.73100000  0.76900000  0.00000000  1.0
  O2-  O20  1  0.23100000  0.26900000  0.50000000  1.0
  O2-  O21  1  0.76900000  0.73100000  0.50000000  1.0
  O2-  O22  1  0.23100000  0.73100000  0.00000000  1.0
  O2-  O23  1  0.76900000  0.26900000  0.00000000  1.0
