# generated using pymatgen
data_Sr0.3La3.7Cu1.98Ni0.02O8
_symmetry_space_group_name_H-M   'P 1'
_cell_length_a   3.77010000
_cell_length_b   3.77010000
_cell_length_c   13.20030000
_cell_angle_alpha   90.00000000
_cell_angle_beta   90.00000000
_cell_angle_gamma   90.00000000
_symmetry_Int_Tables_number   1
_chemical_formula_structural   Sr0.3La3.7Cu1.98Ni0.02O8
_chemical_formula_sum   'Sr0.3 La3.7 Cu1.98 Ni0.02 O8'
_cell_volume   187.62449703
_cell_formula_units_Z   1
loop_
 _symmetry_equiv_pos_site_id
 _symmetry_equiv_pos_as_xyz
  1  'x, y, z'
loop_
 _atom_type_symbol
 _atom_type_oxidation_number
  Sr2+  2.0
  La3+  3.0
  Cu2.151+  2.151
  Ni2+  2.0
  O2-  -2.0
loop_
 _atom_site_type_symbol
 _atom_site_label
 _atom_site_symmetry_multiplicity
 _atom_site_fract_x
 _atom_site_fract_y
 _atom_site_fract_z
 _atom_site_occupancy
  Sr2+  Sr0  1  0.00000000  0.00000000  0.63900000  0.075
  La3+  La1  1  0.00000000  0.00000000  0.63900000  0.925
  Sr2+  Sr2  1  0.00000000  0.00000000  0.36100000  0.075
  La3+  La3  1  0.00000000  0.00000000  0.36100000  0.925
  Sr2+  Sr4  1  0.50000000  0.50000000  0.13900000  0.075
  La3+  La5  1  0.50000000  0.50000000  0.13900000  0.925
  Sr2+  Sr6  1  0.50000000  0.50000000  0.86100000  0.075
  La3+  La7  1  0.50000000  0.50000000  0.86100000  0.925
  Cu2.151+  Cu8  1  0.00000000  0.00000000  0.00000000  0.99
  Ni2+  Ni9  1  0.00000000  0.00000000  0.00000000  0.01
  Cu2.151+  Cu10  1  0.50000000  0.50000000  0.50000000  0.99
  Ni2+  Ni11  1  0.50000000  0.50000000  0.50000000  0.01
  O2-  O12  1  0.00000000  0.50000000  0.00000000  1.0
  O2-  O13  1  0.50000000  0.00000000  0.00000000  1.0
  O2-  O14  1  0.50000000  0.00000000  0.50000000  1.0
  O2-  O15  1  0.00000000  0.50000000  0.50000000  1.0
  O2-  O16  1  0.00000000  0.00000000  0.80590000  1.0
  O2-  O17  1  0.00000000  0.00000000  0.19410000  1.0
  O2-  O18  1  0.50000000  0.50000000  0.30590000  1.0
  O2-  O19  1  0.50000000  0.50000000  0.69410000  1.0
