# generated using pymatgen
data_Sr0.3La3.7Mg0.4Cu1.6O8
_symmetry_space_group_name_H-M   'P 1'
_cell_length_a   3.78610000
_cell_length_b   3.78610000
_cell_length_c   13.19260000
_cell_angle_alpha   90.00000000
_cell_angle_beta   90.00000000
_cell_angle_gamma   90.00000000
_symmetry_Int_Tables_number   1
_chemical_formula_structural   Sr0.3La3.7Mg0.4Cu1.6O8
_chemical_formula_sum   'Sr0.3 La3.7 Mg0.4 Cu1.6 O8'
_cell_volume   189.11002668
_cell_formula_units_Z   1
loop_
 _symmetry_equiv_pos_site_id
 _symmetry_equiv_pos_as_xyz
  1  'x, y, z'
loop_
 _atom_type_symbol
 _atom_type_oxidation_number
  Sr2+  2.0
  La3+  3.0
  Mg2+  2.0
  Cu2.187+  2.187
  O2-  -2.0
loop_
 _atom_site_type_symbol
 _atom_site_label
 _atom_site_symmetry_multiplicity
 _atom_site_fract_x
 _atom_site_fract_y
 _atom_site_fract_z
 _atom_site_occupancy
  Sr2+  Sr0  1  0.00000000  0.00000000  0.63870000  0.075
  La3+  La1  1  0.00000000  0.00000000  0.63870000  0.925
  Sr2+  Sr2  1  0.00000000  0.00000000  0.36130000  0.075
  La3+  La3  1  0.00000000  0.00000000  0.36130000  0.925
  Sr2+  Sr4  1  0.50000000  0.50000000  0.13870000  0.075
  La3+  La5  1  0.50000000  0.50000000  0.13870000  0.925
  Sr2+  Sr6  1  0.50000000  0.50000000  0.86130000  0.075
  La3+  La7  1  0.50000000  0.50000000  0.86130000  0.925
  Mg2+  Mg8  1  0.00000000  0.00000000  0.00000000  0.2
  Cu2.187+  Cu9  1  0.00000000  0.00000000  0.00000000  0.8
  Mg2+  Mg10  1  0.50000000  0.50000000  0.50000000  0.2
  Cu2.187+  Cu11  1  0.50000000  0.50000000  0.50000000  0.8
  O2-  O12  1  0.00000000  0.50000000  0.00000000  1.0
  O2-  O13  1  0.50000000  0.00000000  0.00000000  1.0
  O2-  O14  1  0.50000000  0.00000000  0.50000000  1.0
  O2-  O15  1  0.00000000  0.50000000  0.50000000  1.0
  O2-  O16  1  0.00000000  0.00000000  0.81400000  1.0
  O2-  O17  1  0.00000000  0.00000000  0.18600000  1.0
  O2-  O18  1  0.50000000  0.50000000  0.31400000  1.0
  O2-  O19  1  0.50000000  0.50000000  0.68600000  1.0
