# generated using pymatgen
data_Sr0.86Nd0.14Cu1O2
_symmetry_space_group_name_H-M   'P 1'
_cell_length_a   3.94400000
_cell_length_b   3.94400000
_cell_length_c   3.38800000
_cell_angle_alpha   90.00000000
_cell_angle_beta   90.00000000
_cell_angle_gamma   90.00000000
_symmetry_Int_Tables_number   1
_chemical_formula_structural   Sr0.86Nd0.14Cu1O2
_chemical_formula_sum   'Sr0.86 Nd0.14 Cu1 O2'
_cell_volume   52.70080077
_cell_formula_units_Z   1
loop_
 _symmetry_equiv_pos_site_id
 _symmetry_equiv_pos_as_xyz
  1  'x, y, z'
loop_
 _atom_type_symbol
 _atom_type_oxidation_number
  Sr2+  2.0
  Nd3+  3.0
  Cu1.86+  1.86
  O2-  -2.0
loop_
 _atom_site_type_symbol
 _atom_site_label
 _atom_site_symmetry_multiplicity
 _atom_site_fract_x
 _atom_site_fract_y
 _atom_site_fract_z
 _atom_site_occupancy
  Sr2+  Sr0  1  0.50000000  0.50000000  0.50000000  0.86
  Nd3+  Nd1  1  0.50000000  0.50000000  0.50000000  0.14
  Cu1.86+  Cu2  1  0.00000000  0.00000000  0.00000000  1.0
  O2-  O3  1  0.00000000  0.50000000  0.00000000  1.0
  O2-  O4  1  0.50000000  0.00000000  0.00000000  1.0
