# generated using pymatgen
data_Sr2Y1Fe1.01Cu1.99O7.68
_symmetry_space_group_name_H-M   'P 1'
_cell_length_a   3.81410000
_cell_length_b   3.81410000
_cell_length_c   11.33940000
_cell_angle_alpha   90.00000000
_cell_angle_beta   90.00000000
_cell_angle_gamma   90.00000000
_symmetry_Int_Tables_number   1
_chemical_formula_structural   Sr2Y1Fe1.01Cu1.99O7.68
_chemical_formula_sum   'Sr2 Y1 Fe1.01 Cu1.99 O7.68'
_cell_volume   164.95832049
_cell_formula_units_Z   1
loop_
 _symmetry_equiv_pos_site_id
 _symmetry_equiv_pos_as_xyz
  1  'x, y, z'
loop_
 _atom_type_symbol
 _atom_type_oxidation_number
  Sr2+  2.0
  Y3+  3.0
  Fe2.787+  2.787
  Cu2.787+  2.787
  O2-  -2.0
loop_
 _atom_site_type_symbol
 _atom_site_label
 _atom_site_symmetry_multiplicity
 _atom_site_fract_x
 _atom_site_fract_y
 _atom_site_fract_z
 _atom_site_occupancy
  Sr2+  Sr0  1  0.50000000  0.50000000  0.81940000  1.0
  Sr2+  Sr1  1  0.50000000  0.50000000  0.18060000  1.0
  Y3+  Y2  1  0.50000000  0.50000000  0.50000000  1.0
  Fe2.787+  Fe3  1  0.00000000  0.00000000  0.00000000  0.81
  Cu2.787+  Cu4  1  0.00000000  0.00000000  0.00000000  0.19
  Fe2.787+  Fe5  1  0.00000000  0.00000000  0.65030000  0.1
  Cu2.787+  Cu6  1  0.00000000  0.00000000  0.65030000  0.9
  Fe2.787+  Fe7  1  0.00000000  0.00000000  0.34970000  0.1
  Cu2.787+  Cu8  1  0.00000000  0.00000000  0.34970000  0.9
  O2-  O9  1  0.00000000  0.00000000  0.83810000  1.0
  O2-  O10  1  0.00000000  0.00000000  0.16190000  1.0
  O2-  O11  1  0.50000000  0.00000000  0.62760000  1.0
  O2-  O12  1  0.00000000  0.50000000  0.62760000  1.0
  O2-  O13  1  0.50000000  0.00000000  0.37240000  1.0
  O2-  O14  1  0.00000000  0.50000000  0.37240000  1.0
  O2-  O15  1  0.50000000  0.07900000  0.00000000  0.42
  O2-  O16  1  0.50000000  0.92100000  0.00000000  0.42
  O2-  O17  1  0.92100000  0.50000000  0.00000000  0.42
  O2-  O18  1  0.07900000  0.50000000  0.00000000  0.42
