# generated using pymatgen
data_Ba8Tl8Cu4O24.64
_symmetry_space_group_name_H-M   'P 1'
_cell_length_a   5.45450000
_cell_length_b   5.52020000
_cell_length_c   23.21110000
_cell_angle_alpha   90.00000000
_cell_angle_beta   90.00000000
_cell_angle_gamma   90.12200000
_symmetry_Int_Tables_number   1
_chemical_formula_structural   Ba8Tl8Cu4O24.64
_chemical_formula_sum   'Ba8 Tl8 Cu4 O24.64'
_cell_volume   698.88303277
_cell_formula_units_Z   1
loop_
 _symmetry_equiv_pos_site_id
 _symmetry_equiv_pos_as_xyz
  1  'x, y, z'
loop_
 _atom_type_symbol
 _atom_type_oxidation_number
  Ba2+  2.0
  Tl3+  3.0
  Cu2.32+  2.32
  O2-  -2.0
loop_
 _atom_site_type_symbol
 _atom_site_label
 _atom_site_symmetry_multiplicity
 _atom_site_fract_x
 _atom_site_fract_y
 _atom_site_fract_z
 _atom_site_occupancy
  Ba2+  Ba0  1  0.50000000  0.00000000  0.91573000  1.0
  Ba2+  Ba1  1  0.50000000  0.00000000  0.08427000  1.0
  Ba2+  Ba2  1  0.50000000  0.50000000  0.41573000  1.0
  Ba2+  Ba3  1  0.50000000  0.50000000  0.58427000  1.0
  Ba2+  Ba4  1  0.00000000  0.00000000  0.41573000  1.0
  Ba2+  Ba5  1  0.00000000  0.00000000  0.58427000  1.0
  Ba2+  Ba6  1  0.00000000  0.50000000  0.91573000  1.0
  Ba2+  Ba7  1  0.00000000  0.50000000  0.08427000  1.0
  Tl3+  Tl8  1  0.98880000  0.03080000  0.79757000  0.5
  Tl3+  Tl9  1  0.01120000  0.96920000  0.79757000  0.5
  Tl3+  Tl10  1  0.01120000  0.96920000  0.20243000  0.5
  Tl3+  Tl11  1  0.98880000  0.03080000  0.20243000  0.5
  Tl3+  Tl12  1  0.98880000  0.53080000  0.29757000  0.5
  Tl3+  Tl13  1  0.01120000  0.46920000  0.29757000  0.5
  Tl3+  Tl14  1  0.01120000  0.46920000  0.70243000  0.5
  Tl3+  Tl15  1  0.98880000  0.53080000  0.70243000  0.5
  Tl3+  Tl16  1  0.48880000  0.03080000  0.29757000  0.5
  Tl3+  Tl17  1  0.51120000  0.96920000  0.29757000  0.5
  Tl3+  Tl18  1  0.51120000  0.96920000  0.70243000  0.5
  Tl3+  Tl19  1  0.48880000  0.03080000  0.70243000  0.5
  Tl3+  Tl20  1  0.48880000  0.53080000  0.79757000  0.5
  Tl3+  Tl21  1  0.51120000  0.46920000  0.79757000  0.5
  Tl3+  Tl22  1  0.51120000  0.46920000  0.20243000  0.5
  Tl3+  Tl23  1  0.48880000  0.53080000  0.20243000  0.5
  Cu2.32+  Cu24  1  0.00000000  0.00000000  0.00000000  1.0
  Cu2.32+  Cu25  1  0.00000000  0.50000000  0.50000000  1.0
  Cu2.32+  Cu26  1  0.50000000  0.00000000  0.50000000  1.0
  Cu2.32+  Cu27  1  0.50000000  0.50000000  0.00000000  1.0
  O2-  O28  1  0.25000000  0.75000000  0.00000000  1.0
  O2-  O29  1  0.75000000  0.25000000  0.00000000  1.0
  O2-  O30  1  0.25000000  0.25000000  0.50000000  1.0
  O2-  O31  1  0.75000000  0.75000000  0.50000000  1.0
  O2-  O32  1  0.25000000  0.25000000  0.00000000  1.0
  O2-  O33  1  0.75000000  0.75000000  0.00000000  1.0
  O2-  O34  1  0.25000000  0.75000000  0.50000000  1.0
  O2-  O35  1  0.75000000  0.25000000  0.50000000  1.0
  O2-  O36  1  0.00000000  0.00000000  0.88361000  1.0
  O2-  O37  1  0.00000000  0.00000000  0.11639000  1.0
  O2-  O38  1  0.00000000  0.50000000  0.38361000  1.0
  O2-  O39  1  0.00000000  0.50000000  0.61639000  1.0
  O2-  O40  1  0.50000000  0.00000000  0.38361000  1.0
  O2-  O41  1  0.50000000  0.00000000  0.61639000  1.0
  O2-  O42  1  0.50000000  0.50000000  0.88361000  1.0
  O2-  O43  1  0.50000000  0.50000000  0.11639000  1.0
  O2-  O44  1  0.25000000  0.25000000  0.75000000  0.08
  O2-  O45  1  0.75000000  0.75000000  0.75000000  0.08
  O2-  O46  1  0.75000000  0.75000000  0.25000000  0.08
  O2-  O47  1  0.25000000  0.25000000  0.25000000  0.08
  O2-  O48  1  0.25000000  0.75000000  0.25000000  0.08
  O2-  O49  1  0.75000000  0.25000000  0.25000000  0.08
  O2-  O50  1  0.75000000  0.25000000  0.75000000  0.08
  O2-  O51  1  0.25000000  0.75000000  0.75000000  0.08
  O2-  O52  1  0.97040000  0.07430000  0.71020000  0.5
  O2-  O53  1  0.02960000  0.92570000  0.71020000  0.5
  O2-  O54  1  0.02960000  0.92570000  0.28980000  0.5
  O2-  O55  1  0.97040000  0.07430000  0.28980000  0.5
  O2-  O56  1  0.97040000  0.57430000  0.21020000  0.5
  O2-  O57  1  0.02960000  0.42570000  0.21020000  0.5
  O2-  O58  1  0.02960000  0.42570000  0.78980000  0.5
  O2-  O59  1  0.97040000  0.57430000  0.78980000  0.5
  O2-  O60  1  0.47040000  0.07430000  0.21020000  0.5
  O2-  O61  1  0.52960000  0.92570000  0.21020000  0.5
  O2-  O62  1  0.52960000  0.92570000  0.78980000  0.5
  O2-  O63  1  0.47040000  0.07430000  0.78980000  0.5
  O2-  O64  1  0.47040000  0.57430000  0.71020000  0.5
  O2-  O65  1  0.52960000  0.42570000  0.71020000  0.5
  O2-  O66  1  0.52960000  0.42570000  0.28980000  0.5
  O2-  O67  1  0.47040000  0.57430000  0.28980000  0.5
