# generated using pymatgen
data_Ba2Ca2Cu3Hg1O8.35
_symmetry_space_group_name_H-M   'P 1'
_cell_length_a   3.85290000
_cell_length_b   3.85290000
_cell_length_c   15.85130000
_cell_angle_alpha   90.00000000
_cell_angle_beta   90.00000000
_cell_angle_gamma   90.00000000
_symmetry_Int_Tables_number   1
_chemical_formula_structural   Ba2Ca2Cu3Hg1O8.35
_chemical_formula_sum   'Ba2 Ca2 Cu3 Hg1 O8.35'
_cell_volume   235.30998709
_cell_formula_units_Z   1
loop_
 _symmetry_equiv_pos_site_id
 _symmetry_equiv_pos_as_xyz
  1  'x, y, z'
loop_
 _atom_type_symbol
 _atom_type_oxidation_number
  Ba2+  2.0
  Ca2+  2.0
  Cu2.233+  2.233
  Hg2+  2.0
  O2-  -2.0
loop_
 _atom_site_type_symbol
 _atom_site_label
 _atom_site_symmetry_multiplicity
 _atom_site_fract_x
 _atom_site_fract_y
 _atom_site_fract_z
 _atom_site_occupancy
  Ba2+  Ba0  1  0.50000000  0.50000000  0.67550000  1.0
  Ba2+  Ba1  1  0.50000000  0.50000000  0.32450000  1.0
  Ca2+  Ca2  1  0.50000000  0.50000000  0.88960000  1.0
  Ca2+  Ca3  1  0.50000000  0.50000000  0.11040000  1.0
  Cu2.233+  Cu4  1  0.00000000  0.00000000  0.00000000  1.0
  Cu2.233+  Cu5  1  0.00000000  0.00000000  0.79960000  1.0
  Cu2.233+  Cu6  1  0.00000000  0.00000000  0.20040000  1.0
  Hg2+  Hg7  1  0.00000000  0.00000000  0.50000000  1.0
  O2-  O8  1  0.00000000  0.50000000  0.00000000  1.0
  O2-  O9  1  0.50000000  0.00000000  0.00000000  1.0
  O2-  O10  1  0.00000000  0.50000000  0.80340000  1.0
  O2-  O11  1  0.50000000  0.00000000  0.80340000  1.0
  O2-  O12  1  0.00000000  0.50000000  0.19660000  1.0
  O2-  O13  1  0.50000000  0.00000000  0.19660000  1.0
  O2-  O14  1  0.00000000  0.00000000  0.61770000  1.0
  O2-  O15  1  0.00000000  0.00000000  0.38230000  1.0
  O2-  O16  1  0.50000000  0.50000000  0.50000000  0.35
