# generated using pymatgen
data_Ba0.448Sr0.152La7.4Cu4O16
_symmetry_space_group_name_H-M   'P 1'
_cell_length_a   5.34916000
_cell_length_b   5.34237000
_cell_length_c   13.23170000
_cell_angle_alpha   90.00000000
_cell_angle_beta   90.00000000
_cell_angle_gamma   90.00000000
_symmetry_Int_Tables_number   1
_chemical_formula_structural   Ba0.448Sr0.152La7.4Cu4O16
_chemical_formula_sum   'Ba0.448 Sr0.152 La7.4 Cu4 O16'
_cell_volume   378.12483018
_cell_formula_units_Z   1
loop_
 _symmetry_equiv_pos_site_id
 _symmetry_equiv_pos_as_xyz
  1  'x, y, z'
loop_
 _atom_type_symbol
 _atom_type_oxidation_number
  Ba2+  2.0
  Sr2+  2.0
  La3+  3.0
  Cu2.15+  2.15
  O2-  -2.0
loop_
 _atom_site_type_symbol
 _atom_site_label
 _atom_site_symmetry_multiplicity
 _atom_site_fract_x
 _atom_site_fract_y
 _atom_site_fract_z
 _atom_site_occupancy
  Ba2+  Ba0  1  0.00600000  0.49930000  0.86082000  0.056
  Sr2+  Sr1  1  0.00600000  0.49930000  0.86082000  0.019
  La3+  La2  1  0.00600000  0.49930000  0.86082000  0.925
  Ba2+  Ba3  1  0.49400000  0.00070000  0.86082000  0.056
  Sr2+  Sr4  1  0.49400000  0.00070000  0.86082000  0.019
  La3+  La5  1  0.49400000  0.00070000  0.86082000  0.925
  Ba2+  Ba6  1  0.50600000  0.50070000  0.63918000  0.056
  Sr2+  Sr7  1  0.50600000  0.50070000  0.63918000  0.019
  La3+  La8  1  0.50600000  0.50070000  0.63918000  0.925
  Ba2+  Ba9  1  0.99400000  0.99930000  0.63918000  0.056
  Sr2+  Sr10  1  0.99400000  0.99930000  0.63918000  0.019
  La3+  La11  1  0.99400000  0.99930000  0.63918000  0.925
  Ba2+  Ba12  1  0.99400000  0.50070000  0.13918000  0.056
  Sr2+  Sr13  1  0.99400000  0.50070000  0.13918000  0.019
  La3+  La14  1  0.99400000  0.50070000  0.13918000  0.925
  Ba2+  Ba15  1  0.50600000  0.99930000  0.13918000  0.056
  Sr2+  Sr16  1  0.50600000  0.99930000  0.13918000  0.019
  La3+  La17  1  0.50600000  0.99930000  0.13918000  0.925
  Ba2+  Ba18  1  0.49400000  0.49930000  0.36082000  0.056
  Sr2+  Sr19  1  0.49400000  0.49930000  0.36082000  0.019
  La3+  La20  1  0.49400000  0.49930000  0.36082000  0.925
  Ba2+  Ba21  1  0.00600000  0.00070000  0.36082000  0.056
  Sr2+  Sr22  1  0.00600000  0.00070000  0.36082000  0.019
  La3+  La23  1  0.00600000  0.00070000  0.36082000  0.925
  Cu2.15+  Cu24  1  0.00000000  0.50000000  0.50000000  1.0
  Cu2.15+  Cu25  1  0.50000000  0.00000000  0.50000000  1.0
  Cu2.15+  Cu26  1  0.50000000  0.50000000  0.00000000  1.0
  Cu2.15+  Cu27  1  0.00000000  0.00000000  0.00000000  1.0
  O2-  O28  1  0.25000000  0.25000000  0.50750000  1.0
  O2-  O29  1  0.75000000  0.75000000  0.99250000  1.0
  O2-  O30  1  0.75000000  0.75000000  0.49250000  1.0
  O2-  O31  1  0.25000000  0.25000000  0.00750000  1.0
  O2-  O32  1  0.25000000  0.75000000  0.49900000  1.0
  O2-  O33  1  0.75000000  0.25000000  0.00100000  1.0
  O2-  O34  1  0.75000000  0.25000000  0.50100000  1.0
  O2-  O35  1  0.25000000  0.75000000  0.99900000  1.0
  O2-  O36  1  0.02130000  0.01000000  0.81821000  1.0
  O2-  O37  1  0.47870000  0.49000000  0.81821000  1.0
  O2-  O38  1  0.52130000  0.99000000  0.68179000  1.0
  O2-  O39  1  0.97870000  0.51000000  0.68179000  1.0
  O2-  O40  1  0.97870000  0.99000000  0.18179000  1.0
  O2-  O41  1  0.52130000  0.51000000  0.18179000  1.0
  O2-  O42  1  0.47870000  0.01000000  0.31821000  1.0
  O2-  O43  1  0.02130000  0.49000000  0.31821000  1.0
