# generated using pymatgen
data_Ba0.056Sr0.48Ca0.064La7.4Cu4O16
_symmetry_space_group_name_H-M   'P 1'
_cell_length_a   5.34910000
_cell_length_b   5.32404000
_cell_length_c   13.19350000
_cell_angle_alpha   90.00000000
_cell_angle_beta   90.00000000
_cell_angle_gamma   90.00000000
_symmetry_Int_Tables_number   1
_chemical_formula_structural   Ba0.056Sr0.48Ca0.064La7.4Cu4O16
_chemical_formula_sum   'Ba0.056 Sr0.48 Ca0.064 La7.4 Cu4 O16'
_cell_volume   375.73534286
_cell_formula_units_Z   1
loop_
 _symmetry_equiv_pos_site_id
 _symmetry_equiv_pos_as_xyz
  1  'x, y, z'
loop_
 _atom_type_symbol
 _atom_type_oxidation_number
  Ba2+  2.0
  Sr2+  2.0
  Ca2+  2.0
  La3+  3.0
  Cu2.15+  2.15
  O2-  -2.0
loop_
 _atom_site_type_symbol
 _atom_site_label
 _atom_site_symmetry_multiplicity
 _atom_site_fract_x
 _atom_site_fract_y
 _atom_site_fract_z
 _atom_site_occupancy
  Ba2+  Ba0  1  0.50580000  0.00000000  0.13928000  0.007
  Sr2+  Sr1  1  0.50580000  0.00000000  0.13928000  0.06
  Ca2+  Ca2  1  0.50580000  0.00000000  0.13928000  0.008
  La3+  La3  1  0.50580000  0.00000000  0.13928000  0.925
  Ba2+  Ba4  1  0.49420000  0.00000000  0.86072000  0.007
  Sr2+  Sr5  1  0.49420000  0.00000000  0.86072000  0.06
  Ca2+  Ca6  1  0.49420000  0.00000000  0.86072000  0.008
  La3+  La7  1  0.49420000  0.00000000  0.86072000  0.925
  Ba2+  Ba8  1  0.00580000  0.00000000  0.36072000  0.007
  Sr2+  Sr9  1  0.00580000  0.00000000  0.36072000  0.06
  Ca2+  Ca10  1  0.00580000  0.00000000  0.36072000  0.008
  La3+  La11  1  0.00580000  0.00000000  0.36072000  0.925
  Ba2+  Ba12  1  0.99420000  0.00000000  0.63928000  0.007
  Sr2+  Sr13  1  0.99420000  0.00000000  0.63928000  0.06
  Ca2+  Ca14  1  0.99420000  0.00000000  0.63928000  0.008
  La3+  La15  1  0.99420000  0.00000000  0.63928000  0.925
  Ba2+  Ba16  1  0.50580000  0.50000000  0.63928000  0.007
  Sr2+  Sr17  1  0.50580000  0.50000000  0.63928000  0.06
  Ca2+  Ca18  1  0.50580000  0.50000000  0.63928000  0.008
  La3+  La19  1  0.50580000  0.50000000  0.63928000  0.925
  Ba2+  Ba20  1  0.49420000  0.50000000  0.36072000  0.007
  Sr2+  Sr21  1  0.49420000  0.50000000  0.36072000  0.06
  Ca2+  Ca22  1  0.49420000  0.50000000  0.36072000  0.008
  La3+  La23  1  0.49420000  0.50000000  0.36072000  0.925
  Ba2+  Ba24  1  0.00580000  0.50000000  0.86072000  0.007
  Sr2+  Sr25  1  0.00580000  0.50000000  0.86072000  0.06
  Ca2+  Ca26  1  0.00580000  0.50000000  0.86072000  0.008
  La3+  La27  1  0.00580000  0.50000000  0.86072000  0.925
  Ba2+  Ba28  1  0.99420000  0.50000000  0.13928000  0.007
  Sr2+  Sr29  1  0.99420000  0.50000000  0.13928000  0.06
  Ca2+  Ca30  1  0.99420000  0.50000000  0.13928000  0.008
  La3+  La31  1  0.99420000  0.50000000  0.13928000  0.925
  Cu2.15+  Cu32  1  0.50000000  0.00000000  0.50000000  1.0
  Cu2.15+  Cu33  1  0.00000000  0.00000000  0.00000000  1.0
  Cu2.15+  Cu34  1  0.50000000  0.50000000  0.00000000  1.0
  Cu2.15+  Cu35  1  0.00000000  0.50000000  0.50000000  1.0
  O2-  O36  1  0.75000000  0.75000000  0.49530000  1.0
  O2-  O37  1  0.25000000  0.75000000  0.50470000  1.0
  O2-  O38  1  0.25000000  0.75000000  0.00470000  1.0
  O2-  O39  1  0.75000000  0.75000000  0.99530000  1.0
  O2-  O40  1  0.25000000  0.25000000  0.50470000  1.0
  O2-  O41  1  0.75000000  0.25000000  0.49530000  1.0
  O2-  O42  1  0.75000000  0.25000000  0.99530000  1.0
  O2-  O43  1  0.25000000  0.25000000  0.00470000  1.0
  O2-  O44  1  0.47760000  0.00000000  0.31786000  1.0
  O2-  O45  1  0.52240000  0.00000000  0.68214000  1.0
  O2-  O46  1  0.97760000  0.00000000  0.18214000  1.0
  O2-  O47  1  0.02240000  0.00000000  0.81786000  1.0
  O2-  O48  1  0.47760000  0.50000000  0.81786000  1.0
  O2-  O49  1  0.52240000  0.50000000  0.18214000  1.0
  O2-  O50  1  0.97760000  0.50000000  0.68214000  1.0
  O2-  O51  1  0.02240000  0.50000000  0.31786000  1.0
