# generated using pymatgen
data_Ba0.304Ca0.296La7.2Nd0.2Cu4O16
_symmetry_space_group_name_H-M   'P 1'
_cell_length_a   5.36154000
_cell_length_b   5.32617000
_cell_length_c   13.17520000
_cell_angle_alpha   90.00000000
_cell_angle_beta   90.00000000
_cell_angle_gamma   90.00000000
_symmetry_Int_Tables_number   1
_chemical_formula_structural   Ba0.304Ca0.296La7.2Nd0.2Cu4O16
_chemical_formula_sum   'Ba0.304 Ca0.296 La7.2 Nd0.2 Cu4 O16'
_cell_volume   376.23724968
_cell_formula_units_Z   1
loop_
 _symmetry_equiv_pos_site_id
 _symmetry_equiv_pos_as_xyz
  1  'x, y, z'
loop_
 _atom_type_symbol
 _atom_type_oxidation_number
  Ba2+  2.0
  Ca2+  2.0
  La3+  3.0
  Nd3+  3.0
  Cu2.15+  2.15
  O2-  -2.0
loop_
 _atom_site_type_symbol
 _atom_site_label
 _atom_site_symmetry_multiplicity
 _atom_site_fract_x
 _atom_site_fract_y
 _atom_site_fract_z
 _atom_site_occupancy
  Ba2+  Ba0  1  0.50650000  0.00000000  0.13934000  0.038
  Ca2+  Ca1  1  0.50650000  0.00000000  0.13934000  0.037
  La3+  La2  1  0.50650000  0.00000000  0.13934000  0.9
  Nd3+  Nd3  1  0.50650000  0.00000000  0.13934000  0.025
  Ba2+  Ba4  1  0.49350000  0.00000000  0.86066000  0.038
  Ca2+  Ca5  1  0.49350000  0.00000000  0.86066000  0.037
  La3+  La6  1  0.49350000  0.00000000  0.86066000  0.9
  Nd3+  Nd7  1  0.49350000  0.00000000  0.86066000  0.025
  Ba2+  Ba8  1  0.00650000  0.00000000  0.36066000  0.038
  Ca2+  Ca9  1  0.00650000  0.00000000  0.36066000  0.037
  La3+  La10  1  0.00650000  0.00000000  0.36066000  0.9
  Nd3+  Nd11  1  0.00650000  0.00000000  0.36066000  0.025
  Ba2+  Ba12  1  0.99350000  0.00000000  0.63934000  0.038
  Ca2+  Ca13  1  0.99350000  0.00000000  0.63934000  0.037
  La3+  La14  1  0.99350000  0.00000000  0.63934000  0.9
  Nd3+  Nd15  1  0.99350000  0.00000000  0.63934000  0.025
  Ba2+  Ba16  1  0.50650000  0.50000000  0.63934000  0.038
  Ca2+  Ca17  1  0.50650000  0.50000000  0.63934000  0.037
  La3+  La18  1  0.50650000  0.50000000  0.63934000  0.9
  Nd3+  Nd19  1  0.50650000  0.50000000  0.63934000  0.025
  Ba2+  Ba20  1  0.49350000  0.50000000  0.36066000  0.038
  Ca2+  Ca21  1  0.49350000  0.50000000  0.36066000  0.037
  La3+  La22  1  0.49350000  0.50000000  0.36066000  0.9
  Nd3+  Nd23  1  0.49350000  0.50000000  0.36066000  0.025
  Ba2+  Ba24  1  0.00650000  0.50000000  0.86066000  0.038
  Ca2+  Ca25  1  0.00650000  0.50000000  0.86066000  0.037
  La3+  La26  1  0.00650000  0.50000000  0.86066000  0.9
  Nd3+  Nd27  1  0.00650000  0.50000000  0.86066000  0.025
  Ba2+  Ba28  1  0.99350000  0.50000000  0.13934000  0.038
  Ca2+  Ca29  1  0.99350000  0.50000000  0.13934000  0.037
  La3+  La30  1  0.99350000  0.50000000  0.13934000  0.9
  Nd3+  Nd31  1  0.99350000  0.50000000  0.13934000  0.025
  Cu2.15+  Cu32  1  0.50000000  0.00000000  0.50000000  1.0
  Cu2.15+  Cu33  1  0.00000000  0.00000000  0.00000000  1.0
  Cu2.15+  Cu34  1  0.50000000  0.50000000  0.00000000  1.0
  Cu2.15+  Cu35  1  0.00000000  0.50000000  0.50000000  1.0
  O2-  O36  1  0.75000000  0.75000000  0.49410000  1.0
  O2-  O37  1  0.25000000  0.75000000  0.50590000  1.0
  O2-  O38  1  0.25000000  0.75000000  0.00590000  1.0
  O2-  O39  1  0.75000000  0.75000000  0.99410000  1.0
  O2-  O40  1  0.25000000  0.25000000  0.50590000  1.0
  O2-  O41  1  0.75000000  0.25000000  0.49410000  1.0
  O2-  O42  1  0.75000000  0.25000000  0.99410000  1.0
  O2-  O43  1  0.25000000  0.25000000  0.00590000  1.0
  O2-  O44  1  0.47250000  0.00000000  0.31737000  1.0
  O2-  O45  1  0.52750000  0.00000000  0.68263000  1.0
  O2-  O46  1  0.97250000  0.00000000  0.18263000  1.0
  O2-  O47  1  0.02750000  0.00000000  0.81737000  1.0
  O2-  O48  1  0.47250000  0.50000000  0.81737000  1.0
  O2-  O49  1  0.52750000  0.50000000  0.18263000  1.0
  O2-  O50  1  0.97250000  0.50000000  0.68263000  1.0
  O2-  O51  1  0.02750000  0.50000000  0.31737000  1.0
