# generated using pymatgen
data_Ba0.496Sr0.104La7.248Nd0.152Cu4O16
_symmetry_space_group_name_H-M   'P 1'
_cell_length_a   5.34979000
_cell_length_b   5.34316000
_cell_length_c   13.22940000
_cell_angle_alpha   90.00000000
_cell_angle_beta   90.00000000
_cell_angle_gamma   90.00000000
_symmetry_Int_Tables_number   1
_chemical_formula_structural   Ba0.496Sr0.104La7.248Nd0.152Cu4O16
_chemical_formula_sum   'Ba0.496 Sr0.104 La7.248 Nd0.152 Cu4 O16'
_cell_volume   378.15954061
_cell_formula_units_Z   1
loop_
 _symmetry_equiv_pos_site_id
 _symmetry_equiv_pos_as_xyz
  1  'x, y, z'
loop_
 _atom_type_symbol
 _atom_type_oxidation_number
  Ba2+  2.0
  Sr2+  2.0
  La3+  3.0
  Nd3+  3.0
  Cu2.15+  2.15
  O2-  -2.0
loop_
 _atom_site_type_symbol
 _atom_site_label
 _atom_site_symmetry_multiplicity
 _atom_site_fract_x
 _atom_site_fract_y
 _atom_site_fract_z
 _atom_site_occupancy
  Ba2+  Ba0  1  0.00550000  0.49830000  0.86081000  0.062
  Sr2+  Sr1  1  0.00550000  0.49830000  0.86081000  0.013
  La3+  La2  1  0.00550000  0.49830000  0.86081000  0.906
  Nd3+  Nd3  1  0.00550000  0.49830000  0.86081000  0.019
  Ba2+  Ba4  1  0.49450000  0.00170000  0.86081000  0.062
  Sr2+  Sr5  1  0.49450000  0.00170000  0.86081000  0.013
  La3+  La6  1  0.49450000  0.00170000  0.86081000  0.906
  Nd3+  Nd7  1  0.49450000  0.00170000  0.86081000  0.019
  Ba2+  Ba8  1  0.50550000  0.50170000  0.63919000  0.062
  Sr2+  Sr9  1  0.50550000  0.50170000  0.63919000  0.013
  La3+  La10  1  0.50550000  0.50170000  0.63919000  0.906
  Nd3+  Nd11  1  0.50550000  0.50170000  0.63919000  0.019
  Ba2+  Ba12  1  0.99450000  0.99830000  0.63919000  0.062
  Sr2+  Sr13  1  0.99450000  0.99830000  0.63919000  0.013
  La3+  La14  1  0.99450000  0.99830000  0.63919000  0.906
  Nd3+  Nd15  1  0.99450000  0.99830000  0.63919000  0.019
  Ba2+  Ba16  1  0.99450000  0.50170000  0.13919000  0.062
  Sr2+  Sr17  1  0.99450000  0.50170000  0.13919000  0.013
  La3+  La18  1  0.99450000  0.50170000  0.13919000  0.906
  Nd3+  Nd19  1  0.99450000  0.50170000  0.13919000  0.019
  Ba2+  Ba20  1  0.50550000  0.99830000  0.13919000  0.062
  Sr2+  Sr21  1  0.50550000  0.99830000  0.13919000  0.013
  La3+  La22  1  0.50550000  0.99830000  0.13919000  0.906
  Nd3+  Nd23  1  0.50550000  0.99830000  0.13919000  0.019
  Ba2+  Ba24  1  0.49450000  0.49830000  0.36081000  0.062
  Sr2+  Sr25  1  0.49450000  0.49830000  0.36081000  0.013
  La3+  La26  1  0.49450000  0.49830000  0.36081000  0.906
  Nd3+  Nd27  1  0.49450000  0.49830000  0.36081000  0.019
  Ba2+  Ba28  1  0.00550000  0.00170000  0.36081000  0.062
  Sr2+  Sr29  1  0.00550000  0.00170000  0.36081000  0.013
  La3+  La30  1  0.00550000  0.00170000  0.36081000  0.906
  Nd3+  Nd31  1  0.00550000  0.00170000  0.36081000  0.019
  Cu2.15+  Cu32  1  0.00000000  0.50000000  0.50000000  1.0
  Cu2.15+  Cu33  1  0.50000000  0.00000000  0.50000000  1.0
  Cu2.15+  Cu34  1  0.50000000  0.50000000  0.00000000  1.0
  Cu2.15+  Cu35  1  0.00000000  0.00000000  0.00000000  1.0
  O2-  O36  1  0.25000000  0.25000000  0.50790000  1.0
  O2-  O37  1  0.75000000  0.75000000  0.99210000  1.0
  O2-  O38  1  0.75000000  0.75000000  0.49210000  1.0
  O2-  O39  1  0.25000000  0.25000000  0.00790000  1.0
  O2-  O40  1  0.25000000  0.75000000  0.50010000  1.0
  O2-  O41  1  0.75000000  0.25000000  0.99990000  1.0
  O2-  O42  1  0.75000000  0.25000000  0.49990000  1.0
  O2-  O43  1  0.25000000  0.75000000  0.00010000  1.0
  O2-  O44  1  0.02130000  0.01000000  0.81818000  1.0
  O2-  O45  1  0.47870000  0.49000000  0.81818000  1.0
  O2-  O46  1  0.52130000  0.99000000  0.68182000  1.0
  O2-  O47  1  0.97870000  0.51000000  0.68182000  1.0
  O2-  O48  1  0.97870000  0.99000000  0.18182000  1.0
  O2-  O49  1  0.52130000  0.51000000  0.18182000  1.0
  O2-  O50  1  0.47870000  0.01000000  0.31818000  1.0
  O2-  O51  1  0.02130000  0.49000000  0.31818000  1.0
