# generated using pymatgen
data_Ba1.6Sr0.4Nd1Cu3O6.94
_symmetry_space_group_name_H-M   'P 1'
_cell_length_a   3.86560000
_cell_length_b   3.89540000
_cell_length_c   11.71900000
_cell_angle_alpha   90.00000000
_cell_angle_beta   90.00000000
_cell_angle_gamma   90.00000000
_symmetry_Int_Tables_number   1
_chemical_formula_structural   Ba1.6Sr0.4Nd1Cu3O6.94
_chemical_formula_sum   'Ba1.6 Sr0.4 Nd1 Cu3 O6.94'
_cell_volume   176.46538451
_cell_formula_units_Z   1
loop_
 _symmetry_equiv_pos_site_id
 _symmetry_equiv_pos_as_xyz
  1  'x, y, z'
loop_
 _atom_type_symbol
 _atom_type_oxidation_number
  Ba2+  2.0
  Sr2+  2.0
  Nd3+  3.0
  Cu2.29+  2.29
  O2-  -2.0
loop_
 _atom_site_type_symbol
 _atom_site_label
 _atom_site_symmetry_multiplicity
 _atom_site_fract_x
 _atom_site_fract_y
 _atom_site_fract_z
 _atom_site_occupancy
  Ba2+  Ba0  1  0.50000000  0.50000000  0.18170000  0.8
  Sr2+  Sr1  1  0.50000000  0.50000000  0.18170000  0.17
  Nd3+  Nd2  1  0.50000000  0.50000000  0.18170000  0.03
  Ba2+  Ba3  1  0.50000000  0.50000000  0.81830000  0.8
  Sr2+  Sr4  1  0.50000000  0.50000000  0.81830000  0.17
  Nd3+  Nd5  1  0.50000000  0.50000000  0.81830000  0.03
  Sr2+  Sr6  1  0.50000000  0.50000000  0.50000000  0.06
  Nd3+  Nd7  1  0.50000000  0.50000000  0.50000000  0.94
  Cu2.29+  Cu8  1  0.00000000  0.00000000  0.00000000  1.0
  Cu2.29+  Cu9  1  0.00000000  0.00000000  0.35070000  1.0
  Cu2.29+  Cu10  1  0.00000000  0.00000000  0.64930000  1.0
  O2-  O11  1  0.00000000  0.00000000  0.16480000  1.0
  O2-  O12  1  0.00000000  0.00000000  0.83520000  1.0
  O2-  O13  1  0.00000000  0.50000000  0.37000000  1.0
  O2-  O14  1  0.00000000  0.50000000  0.63000000  1.0
  O2-  O15  1  0.50000000  0.00000000  0.37700000  1.0
  O2-  O16  1  0.50000000  0.00000000  0.62300000  1.0
  O2-  O17  1  0.50000000  0.00000000  0.00000000  0.12
  O2-  O18  1  0.00000000  0.50000000  0.00000000  0.82
