# generated using pymatgen
data_Ba1.4Sr0.6Nd1Cu3O6.94
_symmetry_space_group_name_H-M   'P 1'
_cell_length_a   3.87020000
_cell_length_b   3.88560000
_cell_length_c   11.69970000
_cell_angle_alpha   90.00000000
_cell_angle_beta   90.00000000
_cell_angle_gamma   90.00000000
_symmetry_Int_Tables_number   1
_chemical_formula_structural   Ba1.4Sr0.6Nd1Cu3O6.94
_chemical_formula_sum   'Ba1.4 Sr0.6 Nd1 Cu3 O6.94'
_cell_volume   175.94066329
_cell_formula_units_Z   1
loop_
 _symmetry_equiv_pos_site_id
 _symmetry_equiv_pos_as_xyz
  1  'x, y, z'
loop_
 _atom_type_symbol
 _atom_type_oxidation_number
  Ba2+  2.0
  Sr2+  2.0
  Nd3+  3.0
  Cu2.29+  2.29
  O2-  -2.0
loop_
 _atom_site_type_symbol
 _atom_site_label
 _atom_site_symmetry_multiplicity
 _atom_site_fract_x
 _atom_site_fract_y
 _atom_site_fract_z
 _atom_site_occupancy
  Ba2+  Ba0  1  0.50000000  0.50000000  0.18210000  0.7
  Sr2+  Sr1  1  0.50000000  0.50000000  0.18210000  0.26
  Nd3+  Nd2  1  0.50000000  0.50000000  0.18210000  0.04
  Ba2+  Ba3  1  0.50000000  0.50000000  0.81790000  0.7
  Sr2+  Sr4  1  0.50000000  0.50000000  0.81790000  0.26
  Nd3+  Nd5  1  0.50000000  0.50000000  0.81790000  0.04
  Sr2+  Sr6  1  0.50000000  0.50000000  0.50000000  0.08
  Nd3+  Nd7  1  0.50000000  0.50000000  0.50000000  0.92
  Cu2.29+  Cu8  1  0.00000000  0.00000000  0.00000000  1.0
  Cu2.29+  Cu9  1  0.00000000  0.00000000  0.35070000  1.0
  Cu2.29+  Cu10  1  0.00000000  0.00000000  0.64930000  1.0
  O2-  O11  1  0.00000000  0.00000000  0.16270000  1.0
  O2-  O12  1  0.00000000  0.00000000  0.83730000  1.0
  O2-  O13  1  0.00000000  0.50000000  0.36870000  1.0
  O2-  O14  1  0.00000000  0.50000000  0.63130000  1.0
  O2-  O15  1  0.50000000  0.00000000  0.37820000  1.0
  O2-  O16  1  0.50000000  0.00000000  0.62180000  1.0
  O2-  O17  1  0.50000000  0.00000000  0.00000000  0.24
  O2-  O18  1  0.00000000  0.50000000  0.00000000  0.7
