# generated using pymatgen
data_Ba1Sr1Nd1Cu3O7.02
_symmetry_space_group_name_H-M   'P 1'
_cell_length_a   3.86670000
_cell_length_b   3.86910000
_cell_length_c   11.63730000
_cell_angle_alpha   90.00000000
_cell_angle_beta   90.00000000
_cell_angle_gamma   90.00000000
_symmetry_Int_Tables_number   1
_chemical_formula_structural   Ba1Sr1Nd1Cu3O7.02
_chemical_formula_sum   'Ba1 Sr1 Nd1 Cu3 O7.02'
_cell_volume   174.10156026
_cell_formula_units_Z   1
loop_
 _symmetry_equiv_pos_site_id
 _symmetry_equiv_pos_as_xyz
  1  'x, y, z'
loop_
 _atom_type_symbol
 _atom_type_oxidation_number
  Ba2+  2.0
  Sr2+  2.0
  Nd3+  3.0
  Cu2.35+  2.35
  O2-  -2.0
loop_
 _atom_site_type_symbol
 _atom_site_label
 _atom_site_symmetry_multiplicity
 _atom_site_fract_x
 _atom_site_fract_y
 _atom_site_fract_z
 _atom_site_occupancy
  Ba2+  Ba0  1  0.50000000  0.50000000  0.18240000  0.5
  Sr2+  Sr1  1  0.50000000  0.50000000  0.18240000  0.445
  Nd3+  Nd2  1  0.50000000  0.50000000  0.18240000  0.055
  Ba2+  Ba3  1  0.50000000  0.50000000  0.81760000  0.5
  Sr2+  Sr4  1  0.50000000  0.50000000  0.81760000  0.445
  Nd3+  Nd5  1  0.50000000  0.50000000  0.81760000  0.055
  Sr2+  Sr6  1  0.50000000  0.50000000  0.50000000  0.11
  Nd3+  Nd7  1  0.50000000  0.50000000  0.50000000  0.89
  Cu2.35+  Cu8  1  0.00000000  0.00000000  0.00000000  1.0
  Cu2.35+  Cu9  1  0.00000000  0.00000000  0.34940000  1.0
  Cu2.35+  Cu10  1  0.00000000  0.00000000  0.65060000  1.0
  O2-  O11  1  0.00000000  0.00000000  0.16540000  1.0
  O2-  O12  1  0.00000000  0.00000000  0.83460000  1.0
  O2-  O13  1  0.00000000  0.50000000  0.35730000  1.0
  O2-  O14  1  0.00000000  0.50000000  0.64270000  1.0
  O2-  O15  1  0.50000000  0.00000000  0.38090000  1.0
  O2-  O16  1  0.50000000  0.00000000  0.61910000  1.0
  O2-  O17  1  0.50000000  0.00000000  0.00000000  0.48
  O2-  O18  1  0.00000000  0.50000000  0.00000000  0.54
