# generated using pymatgen
data_Ba1.2Sr0.8Nd1Cu3O6.97
_symmetry_space_group_name_H-M   'P 1'
_cell_length_a   3.86900000
_cell_length_b   3.87570000
_cell_length_c   11.67310000
_cell_angle_alpha   90.00000000
_cell_angle_beta   90.00000000
_cell_angle_gamma   90.00000000
_symmetry_Int_Tables_number   1
_chemical_formula_structural   Ba1.2Sr0.8Nd1Cu3O6.97
_chemical_formula_sum   'Ba1.2 Sr0.8 Nd1 Cu3 O6.97'
_cell_volume   175.03910687
_cell_formula_units_Z   1
loop_
 _symmetry_equiv_pos_site_id
 _symmetry_equiv_pos_as_xyz
  1  'x, y, z'
loop_
 _atom_type_symbol
 _atom_type_oxidation_number
  Ba2+  2.0
  Sr2+  2.0
  Nd3+  3.0
  Cu2.31+  2.31
  O2-  -2.0
loop_
 _atom_site_type_symbol
 _atom_site_label
 _atom_site_symmetry_multiplicity
 _atom_site_fract_x
 _atom_site_fract_y
 _atom_site_fract_z
 _atom_site_occupancy
  Ba2+  Ba0  1  0.50000000  0.50000000  0.18240000  0.6
  Sr2+  Sr1  1  0.50000000  0.50000000  0.18240000  0.35
  Nd3+  Nd2  1  0.50000000  0.50000000  0.18240000  0.05
  Ba2+  Ba3  1  0.50000000  0.50000000  0.81760000  0.6
  Sr2+  Sr4  1  0.50000000  0.50000000  0.81760000  0.35
  Nd3+  Nd5  1  0.50000000  0.50000000  0.81760000  0.05
  Sr2+  Sr6  1  0.50000000  0.50000000  0.50000000  0.1
  Nd3+  Nd7  1  0.50000000  0.50000000  0.50000000  0.9
  Cu2.31+  Cu8  1  0.00000000  0.00000000  0.00000000  1.0
  Cu2.31+  Cu9  1  0.00000000  0.00000000  0.35150000  1.0
  Cu2.31+  Cu10  1  0.00000000  0.00000000  0.64850000  1.0
  O2-  O11  1  0.00000000  0.00000000  0.16530000  1.0
  O2-  O12  1  0.00000000  0.00000000  0.83470000  1.0
  O2-  O13  1  0.00000000  0.50000000  0.36330000  1.0
  O2-  O14  1  0.00000000  0.50000000  0.63670000  1.0
  O2-  O15  1  0.50000000  0.00000000  0.38120000  1.0
  O2-  O16  1  0.50000000  0.00000000  0.61880000  1.0
  O2-  O17  1  0.50000000  0.00000000  0.00000000  0.33
  O2-  O18  1  0.00000000  0.50000000  0.00000000  0.64
