# generated using pymatgen
data_La5(BC3)2
_symmetry_space_group_name_H-M   'P 1'
_cell_length_a   8.59330000
_cell_length_b   8.59330000
_cell_length_c   12.70980000
_cell_angle_alpha   90.00000000
_cell_angle_beta   90.00000000
_cell_angle_gamma   90.00000000
_symmetry_Int_Tables_number   1
_chemical_formula_structural   La5(BC3)2
_chemical_formula_sum   'La20 B8 C24'
_cell_volume   938.55270119
_cell_formula_units_Z   4
loop_
 _symmetry_equiv_pos_site_id
 _symmetry_equiv_pos_as_xyz
  1  'x, y, z'
loop_
 _atom_type_symbol
 _atom_type_oxidation_number
  La0+  0.0
  B0+  0.0
  C0+  0.0
loop_
 _atom_site_type_symbol
 _atom_site_label
 _atom_site_symmetry_multiplicity
 _atom_site_fract_x
 _atom_site_fract_y
 _atom_site_fract_z
 _atom_site_occupancy
  La0+  La0  1  0.79610000  0.40040000  0.96180000  1.0
  La0+  La1  1  0.20390000  0.59960000  0.96180000  1.0
  La0+  La2  1  0.59960000  0.79610000  0.96180000  1.0
  La0+  La3  1  0.40040000  0.20390000  0.96180000  1.0
  La0+  La4  1  0.59780000  0.20090000  0.45120000  1.0
  La0+  La5  1  0.40220000  0.79910000  0.45120000  1.0
  La0+  La6  1  0.79910000  0.59780000  0.45120000  1.0
  La0+  La7  1  0.20090000  0.40220000  0.45120000  1.0
  La0+  La8  1  0.90130000  0.29580000  0.23750000  1.0
  La0+  La9  1  0.09870000  0.70420000  0.23750000  1.0
  La0+  La10  1  0.70420000  0.90130000  0.23750000  1.0
  La0+  La11  1  0.29580000  0.09870000  0.23750000  1.0
  La0+  La12  1  0.70040000  0.09780000  0.75050000  1.0
  La0+  La13  1  0.29960000  0.90220000  0.75050000  1.0
  La0+  La14  1  0.90220000  0.70040000  0.75050000  1.0
  La0+  La15  1  0.09780000  0.29960000  0.75050000  1.0
  La0+  La16  1  0.50000000  0.50000000  0.22170000  1.0
  La0+  La17  1  0.50000000  0.50000000  0.72850000  1.0
  La0+  La18  1  0.00000000  0.00000000  0.49080000  1.0
  La0+  La19  1  0.00000000  0.00000000  0.00000000  1.0
  B0+  B20  1  0.69100000  0.11400000  0.00500000  1.0
  B0+  B21  1  0.30900000  0.88600000  0.00500000  1.0
  B0+  B22  1  0.88600000  0.69100000  0.00500000  1.0
  B0+  B23  1  0.11400000  0.30900000  0.00500000  1.0
  B0+  B24  1  0.81000000  0.36000000  0.66600000  1.0
  B0+  B25  1  0.19000000  0.64000000  0.66600000  1.0
  B0+  B26  1  0.64000000  0.81000000  0.66600000  1.0
  B0+  B27  1  0.36000000  0.19000000  0.66600000  1.0
  C0+  C28  1  0.65300000  0.15900000  0.12300000  1.0
  C0+  C29  1  0.34700000  0.84100000  0.12300000  1.0
  C0+  C30  1  0.84100000  0.65300000  0.12300000  1.0
  C0+  C31  1  0.15900000  0.34700000  0.12300000  1.0
  C0+  C32  1  0.87900000  0.31300000  0.54000000  1.0
  C0+  C33  1  0.12100000  0.68700000  0.54000000  1.0
  C0+  C34  1  0.68700000  0.87900000  0.54000000  1.0
  C0+  C35  1  0.31300000  0.12100000  0.54000000  1.0
  C0+  C36  1  0.59000000  0.20900000  0.25300000  1.0
  C0+  C37  1  0.41000000  0.79100000  0.25300000  1.0
  C0+  C38  1  0.79100000  0.59000000  0.25300000  1.0
  C0+  C39  1  0.20900000  0.41000000  0.25300000  1.0
  C0+  C40  1  0.78800000  0.39700000  0.78400000  1.0
  C0+  C41  1  0.21200000  0.60300000  0.78400000  1.0
  C0+  C42  1  0.60300000  0.78800000  0.78400000  1.0
  C0+  C43  1  0.39700000  0.21200000  0.78400000  1.0
  C0+  C44  1  0.50000000  0.50000000  0.43100000  1.0
  C0+  C45  1  0.50000000  0.50000000  0.53800000  1.0
  C0+  C46  1  0.00000000  0.00000000  0.69100000  1.0
  C0+  C47  1  0.00000000  0.00000000  0.80000000  1.0
  C0+  C48  1  0.51900000  0.46200000  0.94000000  0.25
  C0+  C49  1  0.48100000  0.53800000  0.94000000  0.25
  C0+  C50  1  0.53800000  0.51900000  0.94000000  0.25
  C0+  C51  1  0.46200000  0.48100000  0.94000000  0.25
  C0+  C52  1  0.51900000  0.46200000  0.03000000  0.25
  C0+  C53  1  0.48100000  0.53800000  0.03000000  0.25
  C0+  C54  1  0.53800000  0.51900000  0.03000000  0.25
  C0+  C55  1  0.46200000  0.48100000  0.03000000  0.25
  C0+  C56  1  0.96200000  0.01900000  0.20400000  0.25
  C0+  C57  1  0.03800000  0.98100000  0.20400000  0.25
  C0+  C58  1  0.98100000  0.96200000  0.20400000  0.25
  C0+  C59  1  0.01900000  0.03800000  0.20400000  0.25
  C0+  C60  1  0.96200000  0.01900000  0.29300000  0.25
  C0+  C61  1  0.03800000  0.98100000  0.29300000  0.25
  C0+  C62  1  0.98100000  0.96200000  0.29300000  0.25
  C0+  C63  1  0.01900000  0.03800000  0.29300000  0.25
